geometry optimzed in LAMMPS
_audit_creation_date              2020-11-30 
_audit_creation_method            'lammps2cif' 
_symmetry_space_group_name_H-M    'P1' 
_symmetry_Int_Tables_number       1 
_symmetry_cell_setting            triclinic 
loop_ 
_symmetry_equiv_pos_as_xyz 
  x,y,z 
_cell_length_a                    36.08300885 
_cell_length_b                    36.36125412435359 
_cell_length_c                    26.555344110305246 
_cell_angle_alpha                 89.90706219106453 
_cell_angle_beta                  90.22833700205452 
_cell_angle_gamma                 120.05079550196376 
loop_ 
_atom_site_label 
_atom_site_type_symbol 
_atom_site_fract_x 
_atom_site_fract_y 
_atom_site_fract_z 
_atom_site_charge 
O1          O  0.19994433  0.85055850  0.09130467    -0.85900
O2          O  0.13307070  0.77707224  0.12597613    -0.82900
C3          C  0.11291603  0.73975603  0.14257168     0.97600
O4          O  0.13049472  0.72631463  0.17316516    -0.83000
O5          O  0.19074463  0.71981690  0.11706444    -0.85600
C6          C  0.22552805  0.72692469  0.09801144     1.02100
O7          O  0.25749662  0.76429186  0.09902608    -0.78400
O8          O  0.23173374  0.81817781  0.05850531    -0.78600
C9          C  0.21077541  0.83705924  0.05330736     1.02000
O10         O  0.23144554  0.87094218  0.19468672    -0.85900
O11         O  0.16060819  0.80145472  0.22998529    -0.83000
C12         C  0.17370450  0.78522881  0.26292710     0.97600
O13         O  0.19451642  0.76744752  0.25041402    -0.83000
O14         O  0.25205157  0.75408399  0.19780580    -0.85600
C15         C  0.28911046  0.78694989  0.19934053     1.02100
O16         O  0.29522166  0.82154938  0.18086934    -0.78400
O17         O  0.27829761  0.88079033  0.13654427    -0.78600
C18         C  0.26733145  0.89403167  0.17474550     1.02000
Cr19       Cr  0.18356425  0.82310934  0.16009468     1.93700
Cr20       Cr  0.19332269  0.74572636  0.18263755     1.93200
Cr21       Cr  0.26183862  0.81975468  0.12091220     1.39100
O22         O  0.21298226  0.79628065  0.15497920    -1.23600
O23         O  0.18722923  0.84112502  0.58957310    -0.85900
O24         O  0.12348975  0.76751533  0.62942212    -0.82900
C25         C  0.10520827  0.73167602  0.65035922     0.97600
O26         O  0.12328186  0.72360566  0.68647601    -0.83000
O27         O  0.18572974  0.71500999  0.63747671    -0.85600
C28         C  0.22080278  0.72391379  0.61747959     1.02100
O29         O  0.25072379  0.76226859  0.61468951    -0.78400
O30         O  0.21996390  0.80748353  0.56433366    -0.78600
C31         C  0.19792263  0.82458247  0.55454998     1.02000
O32         O  0.21728941  0.86993768  0.69284168    -0.85900
O33         O  0.14768347  0.80037437  0.73141213    -0.83000
C34         C  0.16491201  0.79193224  0.76796471     0.97600
O35         O  0.18825836  0.77597632  0.76038416    -0.83000
O36         O  0.24754643  0.76077086  0.71418990    -0.85600
C37         C  0.28274182  0.79575097  0.71262781     1.02100
O38         O  0.28522604  0.82720772  0.68970756    -0.78400
O39         O  0.26387878  0.87796245  0.63529756    -0.78600
C40         C  0.25336102  0.89229508  0.67281960     1.02000
Cr41       Cr  0.17113513  0.81818528  0.66085921     1.93700
Cr42       Cr  0.18708286  0.74724523  0.69738192     1.93200
Cr43       Cr  0.25142034  0.81728015  0.62794816     1.39100
O44         O  0.20312842  0.79404633  0.66210882    -1.23600
O45         O  0.65007687  0.84296475  0.40187495    -0.85900
O46         O  0.64180280  0.77217120  0.35669003    -0.82900
C47         C  0.62399625  0.73676730  0.33476367     0.97600
O48         O  0.59726780  0.72899118  0.29915459    -0.83000
O49         O  0.52353932  0.71477777  0.34779113    -0.85600
C50         C  0.49896474  0.72294939  0.37286466     1.02100
O51         O  0.50724784  0.76097302  0.37822596    -0.78400
O52         O  0.58392459  0.80578713  0.42846257    -0.78600
C53         C  0.62351291  0.82503608  0.43733849     1.02000
O54         O  0.64662881  0.87466488  0.30181460    -0.85900
O55         O  0.64916546  0.80863586  0.25732460    -0.83000
C56         C  0.62320801  0.80356278  0.22220086     0.97600
O57         O  0.58375987  0.78500337  0.23069929    -0.83000
O58         O  0.50877691  0.76504264  0.27646148    -0.85600
C59         C  0.50837720  0.79967803  0.28057828     1.02100
O60         O  0.53570908  0.82934788  0.30763692    -0.78400
O61         O  0.60814306  0.87858230  0.36265620    -0.78600
C62         C  0.63253559  0.89515965  0.32508159     1.02000
Cr63       Cr  0.64302348  0.82279496  0.32945751     1.93700
Cr64       Cr  0.55600973  0.75168818  0.29099343     1.93200
Cr65       Cr  0.56073956  0.81722023  0.36693253     1.39100
O66         O  0.58636315  0.79673021  0.32945299    -1.23600
O67         O  0.63521340  0.84500151  0.90228835    -0.85900
O68         O  0.62818645  0.77144425  0.86893428    -0.82900
C69         C  0.61511154  0.73641625  0.84736857     0.97600
O70         O  0.58957259  0.72639522  0.81039941    -0.83000
O71         O  0.51670014  0.71673677  0.85789851    -0.85600
C72         C  0.48918758  0.72457403  0.87621735     1.02100
O73         O  0.49412485  0.76173510  0.87248815    -0.78400
O74         O  0.56750246  0.81921895  0.92184865    -0.78600
C75         C  0.60621520  0.83611513  0.93464974     1.02000
O76         O  0.64011249  0.87166396  0.79896463    -0.85900
O77         O  0.63973380  0.80154406  0.76402460    -0.83000
C78         C  0.61431331  0.78884355  0.72645695     0.97600
O79         O  0.57452187  0.77189393  0.73243498    -0.83000
O80         O  0.49672863  0.75230870  0.77399981    -0.85600
C81         C  0.49355505  0.78527693  0.76927979     1.02100
O82         O  0.52200082  0.81979625  0.78776944    -0.78400
O83         O  0.59211058  0.87973290  0.84038410    -0.78600
C84         C  0.62518762  0.89466049  0.81278550     1.02000
Cr85       Cr  0.63140955  0.82037802  0.83316466     1.93700
Cr86       Cr  0.54677998  0.74576155  0.79603654     1.93200
Cr87       Cr  0.54631381  0.81848069  0.85368178     1.39100
O88         O  0.57497817  0.79519522  0.82781181    -1.23600
O89         O  0.15270492  0.36196375  0.93749977    -0.85900
O90         O  0.22513895  0.36549664  0.97236521    -0.82900
C91         C  0.26176819  0.37978638  0.99126082     0.97600
O92         O  0.27468049  0.40792323  0.02566385    -0.83000
O93         O  0.28773965  0.47847824  0.97224002    -0.85600
C94         C  0.28162427  0.50589974  0.95087550     1.02100
O95         O  0.24533082  0.50357542  0.95392259    -0.78400
O96         O  0.18976846  0.42708387  0.90853878    -0.78600
C97         C  0.16903687  0.38765553  0.90090506     1.02000
O98         O  0.13129972  0.36930424  0.04223110    -0.85900
O99         O  0.19976774  0.36432703  0.07671679    -0.83000
C100        C  0.21133385  0.39187144  0.11144828     0.97600
O101        O  0.23127391  0.43084042  0.10115828    -0.83000
O102        O  0.25217999  0.50513019  0.05200531    -0.85600
C103        C  0.21837907  0.50773290  0.05503111     1.02100
O104        O  0.18422091  0.48007432  0.03458923    -0.78400
O105        O  0.12451755  0.40861010  0.98458955    -0.78600
C106        C  0.10933513  0.38317104  0.02167094     1.02000
Cr107      Cr  0.17916440  0.36909809  0.00708518     1.93700
Cr108      Cr  0.25812046  0.45345160  0.03585963     1.93200
Cr109      Cr  0.18720849  0.45277401  0.97237830     1.39100
O110        O  0.20826481  0.42510757  0.00503945    -1.23600
O111        O  0.18688904  0.37894455  0.43142183    -0.85900
O112        O  0.23549208  0.37254874  0.50608483    -0.82900
C113        C  0.27252298  0.39797862  0.48904436     0.97600
O114        O  0.28815427  0.43753632  0.49472182    -0.83000
O115        O  0.28895671  0.51353394  0.49589712    -0.85600
C116        C  0.28156375  0.51777247  0.45039972     1.02100
O117        O  0.24514743  0.49342327  0.43114186    -0.78400
O118        O  0.16288695  0.42296625  0.42216497    -0.78600
C119        C  0.17292658  0.39733914  0.40332606     1.02000
O120        O  0.12579969  0.37531036  0.50663859    -0.85900
O121        O  0.17864863  0.37684354  0.58127272    -0.83000
C122        C  0.21087239  0.39228370  0.61003069     0.97600
O123        O  0.24754346  0.41753522  0.59243909    -0.83000
O124        O  0.24118372  0.49098171  0.58674427    -0.85600
C125        C  0.23079205  0.51679026  0.56860471     1.02100
O126        O  0.21968324  0.51450481  0.52308400    -0.78400
O127        O  0.14134590  0.44124797  0.51871069    -0.78600
C128        C  0.11544070  0.40182054  0.52257133     1.02000
Cr129      Cr  0.18374193  0.37983588  0.50642338     1.93700
Cr130      Cr  0.26272500  0.46262673  0.54024231     1.93200
Cr131      Cr  0.19362622  0.46567130  0.47595435     1.39100
O132        O  0.21321688  0.43603967  0.50773324    -1.23600
O133        O  0.35787914  0.15755399  0.41540019    -0.85900
O134        O  0.35477917  0.22589228  0.37948777    -0.82900
C135        C  0.36635679  0.26166521  0.36043128     0.97600
O136        O  0.39448558  0.27602714  0.32580330    -0.83000
O137        O  0.47033237  0.28978684  0.36880412    -0.85600
C138        C  0.49995277  0.28410351  0.38483342     1.02100
O139        O  0.49706811  0.24801338  0.38031092    -0.78400
O140        O  0.42659103  0.19220055  0.43400344    -0.78600
C141        C  0.38813250  0.17121112  0.44767441     1.02000
O142        O  0.35528726  0.13129978  0.30961117    -0.85900
O143        O  0.34620853  0.19617308  0.27590188    -0.83000
C144        C  0.37132040  0.20915472  0.23839839     0.97600
O145        O  0.41108875  0.23189089  0.24445169    -0.83000
O146        O  0.49035123  0.25402843  0.28338353    -0.85600
C147        C  0.49318758  0.22073409  0.27786017     1.02100
O148        O  0.46685655  0.18686686  0.29937361    -0.78400
O149        O  0.40232914  0.12793344  0.35837175    -0.78600
C150        C  0.37276582  0.11132730  0.32586892     1.02000
Cr151      Cr  0.35771973  0.17995284  0.34488329     1.93700
Cr152      Cr  0.43936898  0.25934002  0.30786018     1.93200
Cr153      Cr  0.44576531  0.19021309  0.36615038     1.39100
O154        O  0.41410795  0.21003775  0.34006760    -1.23600
O155        O  0.34926038  0.15025599  0.91585875    -0.85900
O156        O  0.35047813  0.22016212  0.87788278    -0.82900
C157        C  0.36306429  0.25506632  0.85607104     0.97600
O158        O  0.38901579  0.26557979  0.81956166    -0.83000
O159        O  0.46188281  0.28366904  0.87276602    -0.85600
C160        C  0.49098120  0.27998575  0.89428075     1.02100
O161        O  0.49014500  0.24459371  0.89436036    -0.78400
O162        O  0.41584454  0.18626509  0.94228978    -0.78600
C163        C  0.37640634  0.16552387  0.95142512     1.02000
O164        O  0.35408187  0.12509974  0.81284249    -0.85900
O165        O  0.34659391  0.18947115  0.77401848    -0.83000
C166        C  0.37354904  0.19884416  0.73871368     0.97600
O167        O  0.41296887  0.22095076  0.74777670    -0.83000
O168        O  0.48997438  0.24890561  0.79459567    -0.85600
C169        C  0.49674625  0.21787284  0.79416858     1.02100
O170        O  0.47153395  0.18372573  0.81626470    -0.78400
O171        O  0.39962548  0.12225764  0.86556853    -0.78600
C172        C  0.37169790  0.10569835  0.83072175     1.02000
Cr173      Cr  0.35414715  0.17340449  0.84526777     1.93700
Cr174      Cr  0.43639569  0.25135944  0.81092044     1.93200
Cr175      Cr  0.44162163  0.18523178  0.87752622     1.39100
O176        O  0.41079293  0.20316533  0.84465941    -1.23600
O177        O  0.79566882  0.15904058  0.10473741    -0.85900
O178        O  0.86399557  0.23026806  0.14354938    -0.82900
C179        C  0.88566503  0.26578016  0.16464529     0.97600
O180        O  0.86967859  0.27570128  0.20114233    -0.83000
O181        O  0.81697504  0.29358410  0.14473570    -0.85600
C182        C  0.78511454  0.28946671  0.12046936     1.02100
O183        O  0.75031863  0.25405300  0.11950251    -0.78400
O184        O  0.76904856  0.19738308  0.07549837    -0.78600
C185        C  0.78715058  0.17603569  0.06822460     1.02000
O186        O  0.76299835  0.13513647  0.20619271    -0.85900
O187        O  0.83444476  0.20023495  0.24634436    -0.83000
C188        C  0.81409311  0.20750082  0.27998256     0.97600
O189        O  0.79768255  0.23010417  0.27016506    -0.83000
O190        O  0.75044439  0.25816717  0.21879853    -0.85600
C191        C  0.71224508  0.22718206  0.21668377     1.02100
O192        O  0.70482060  0.19277647  0.19655615    -0.78400
O193        O  0.71735773  0.13213962  0.14910013    -0.78600
C194        C  0.72706195  0.11533104  0.18508088     1.02000
Cr195      Cr  0.81261346  0.18329384  0.17502641     1.93700
Cr196      Cr  0.80749678  0.26108478  0.20686347     1.93200
Cr197      Cr  0.73870080  0.19499499  0.13743368     1.39100
O198        O  0.78601822  0.21298403  0.17311114    -1.23600
O199        O  0.82946052  0.19443284  0.60388001    -0.85900
O200        O  0.87497690  0.24182844  0.68538853    -0.82900
C201        C  0.88911010  0.27786149  0.66508713     0.97600
O202        O  0.86497324  0.29378655  0.66208362    -0.83000
O203        O  0.78919374  0.29494335  0.64881987    -0.85600
C204        C  0.77876913  0.28624058  0.60318809     1.02100
O205        O  0.76843878  0.24999516  0.58550467    -0.78400
O206        O  0.76249575  0.17017571  0.58234176    -0.78600
C207        C  0.80028854  0.17949865  0.57096264     1.02000
O208        O  0.76489898  0.13346595  0.66994202    -0.85900
O209        O  0.80639363  0.18538043  0.75031499    -0.83000
C210        C  0.82196644  0.21775110  0.77825489     0.97600
O211        O  0.83344048  0.25396758  0.75960742    -0.83000
O212        O  0.75454535  0.24867239  0.73889902    -0.85600
C213        C  0.71916279  0.23643280  0.71622578     1.02100
O214        O  0.71438763  0.22375748  0.67114407    -0.78400
O215        O  0.71300311  0.14770374  0.67457824    -0.78600
C216        C  0.72714878  0.12276942  0.68280314     1.02000
Cr217      Cr  0.81684672  0.19087811  0.67676901     1.93700
Cr218      Cr  0.80936681  0.26922389  0.70020461     1.93200
Cr219      Cr  0.74317465  0.19918673  0.63106387     1.39100
O220        O  0.78967164  0.21986484  0.66924234    -1.23600
O221        O  0.83746902  0.63738490  0.92483473    -0.85900
O222        O  0.76586918  0.63552757  0.95895532    -0.82900
C223        C  0.72905600  0.62112825  0.97698201     0.97600
O224        O  0.71519343  0.59208934  0.00992823    -0.83000
O225        O  0.70477271  0.52090223  0.95881765    -0.85600
C226        C  0.71148597  0.49253803  0.94144880     1.02100
O227        O  0.74826280  0.49635348  0.94591979    -0.78400
O228        O  0.80576075  0.57085680  0.89919875    -0.78600
C229        C  0.82567382  0.61001436  0.88973413     1.02000
O230        O  0.86117278  0.63382014  0.02989122    -0.85900
O231        O  0.79285166  0.63810397  0.06404707    -0.83000
C232        C  0.77623529  0.61074301  0.09902973     0.97600
O233        O  0.75564200  0.57165127  0.08934830    -0.83000
O234        O  0.73760682  0.49710864  0.04350040    -0.85600
C235        C  0.77060791  0.49351439  0.04872839     1.02100
O236        O  0.80572457  0.52100743  0.03005760    -0.78400
O237        O  0.86736715  0.59062976  0.97816347    -0.78600
C238        C  0.88296998  0.61864189  0.01235197     1.02000
Cr239      Cr  0.81217731  0.63200477  0.99438329     1.93700
Cr240      Cr  0.73221535  0.54778927  0.02310339     1.93200
Cr241      Cr  0.80521329  0.54710459  0.96546040     1.39100
O242        O  0.78321786  0.57581546  0.99424544    -1.23600
O243        O  0.84053420  0.64471870  0.42363082    -0.85900
O244        O  0.76947152  0.64199134  0.46224344    -0.82900
C245        C  0.73360752  0.62780615  0.48296488     0.97600
O246        O  0.72416943  0.60337791  0.52091466    -0.83000
O247        O  0.70457268  0.53179804  0.46807954    -0.85600
C248        C  0.70840588  0.50430582  0.44372205     1.02100
O249        O  0.74405489  0.50532912  0.44194919    -0.78400
O250        O  0.79969036  0.57999598  0.39597923    -0.78600
C251        C  0.82139881  0.61917457  0.38769695     1.02000
O252        O  0.86543494  0.63739815  0.52592553    -0.85900
O253        O  0.80039733  0.64548579  0.56513566    -0.83000
C254        C  0.79144263  0.61914830  0.60083944     0.97600
O255        O  0.77116661  0.57985286  0.59210812    -0.83000
O256        O  0.74228587  0.50322954  0.54248152    -0.85600
C257        C  0.77291998  0.49559050  0.53859751     1.02100
O258        O  0.80712513  0.52210182  0.51726253    -0.78400
O259        O  0.86729019  0.59460358  0.46897013    -0.78600
C260        C  0.88442236  0.62021097  0.50569719     1.02000
Cr261      Cr  0.81692841  0.63866017  0.49425453     1.93700
Cr262      Cr  0.73899628  0.55659039  0.52905441     1.93200
Cr263      Cr  0.80376179  0.55301699  0.45821076     1.39100
O264        O  0.78669981  0.58255073  0.49409210    -1.23600
C265        C  0.80437462  0.63332068  0.65310146    -0.05800
C266        C  0.78657284  0.65392865  0.67988127    -0.05700
C267        C  0.79185768  0.65878812  0.73228753    -0.23900
C268        C  0.81502688  0.64308087  0.75838271     0.18300
C269        C  0.83534188  0.62485395  0.73084310     0.15600
C270        C  0.82992110  0.62021849  0.67850396    -0.18900
C271        C  0.85806469  0.60860254  0.75640323    -0.20700
C272        C  0.85761734  0.60701240  0.80887968    -0.13300
C273        C  0.83551607  0.62270194  0.83666774     0.03400
C274        C  0.81570940  0.64236349  0.81144260    -0.25400
H275        H  0.76652298  0.66391015  0.66074011     0.08500
H276        H  0.77613790  0.67295347  0.75263367     0.12100
H277        H  0.84346775  0.60406484  0.65777195     0.12000
H278        H  0.87403847  0.59481327  0.73580342     0.11800
H279        H  0.87269281  0.59147645  0.82786520     0.12300
H280        H  0.79788571  0.65372186  0.83284460     0.14200
C281        C  0.77960810  0.62327810  0.15230801    -0.05800
C282        C  0.74187831  0.60737148  0.18055932    -0.05700
C283        C  0.74340911  0.60881087  0.23304701    -0.23900
C284        C  0.78274237  0.62517055  0.25820166     0.18300
C285        C  0.82123685  0.64340300  0.23030832     0.15600
C286        C  0.81944613  0.64284330  0.17722158    -0.18900
C287        C  0.86044761  0.65904884  0.25605661    -0.20700
C288        C  0.86121545  0.65426441  0.30847905    -0.13300
C289        C  0.82281909  0.63383645  0.33562906     0.03400
C290        C  0.78386983  0.62069165  0.31051459    -0.25400
H291        H  0.71095915  0.59181490  0.16188903     0.08500
H292        H  0.71369024  0.59492551  0.25392903     0.12100
H293        H  0.84857028  0.65428937  0.15553126     0.12000
H294        H  0.89029624  0.67312841  0.23542505     0.11800
H295        H  0.89145251  0.66412246  0.32729273     0.12300
H296        H  0.75415512  0.60457088  0.33145503     0.14200
C297        C  0.76687450  0.45346140  0.55340271    -0.05800
C298        C  0.73083625  0.42464379  0.58124052    -0.05700
C299        C  0.72357229  0.38386138  0.59202770    -0.23900
C300        C  0.75196551  0.37089764  0.57474245     0.18300
C301        C  0.78762212  0.39900052  0.54543923     0.15600
C302        C  0.79495113  0.44009182  0.53521357    -0.18900
C303        C  0.81591852  0.38584473  0.52803347    -0.20700
C304        C  0.81051483  0.34631584  0.54232405    -0.13300
C305        C  0.77641132  0.31920283  0.57353709     0.03400
C306        C  0.74650108  0.33113094  0.58831504    -0.25400
H307        H  0.70820378  0.43364671  0.59470815     0.08500
H308        H  0.69589896  0.36255599  0.61428473     0.12100
H309        H  0.82234771  0.46150413  0.51262011     0.12000
H310        H  0.84338467  0.40695433  0.50536925     0.11800
H311        H  0.83456326  0.33822332  0.53198160     0.12300
H312        H  0.72072875  0.31067107  0.61356567     0.14200
C313        C  0.78742096  0.32787096  0.09936860    -0.05800
C314        C  0.82694902  0.36128504  0.08296891    -0.05700
C315        C  0.83168183  0.40082556  0.07166572    -0.23900
C316        C  0.79705194  0.40770718  0.07731847     0.18300
C317        C  0.75695125  0.37420961  0.09336934     0.15600
C318        C  0.75221785  0.33422665  0.10380094    -0.18900
C319        C  0.72253041  0.38150903  0.09925988    -0.20700
C320        C  0.72746637  0.42123848  0.08747584    -0.13300
C321        C  0.76697947  0.45433344  0.07015081     0.03400
C322        C  0.80190954  0.44750809  0.06646578    -0.25400
H323        H  0.85454167  0.35704989  0.08012816     0.08500
H324        H  0.86257558  0.42619131  0.05935833     0.12100
H325        H  0.72196360  0.30885283  0.11776280     0.12000
H326        H  0.69167416  0.35633071  0.11189813     0.11800
H327        H  0.69996682  0.42560589  0.09034307     0.12300
H328        H  0.83253469  0.47261763  0.05302335     0.14200
C329        C  0.79899173  0.17277947  0.01642310    -0.05800
C330        C  0.77739208  0.13456501  0.98945645    -0.05700
C331        C  0.78091040  0.13470147  0.93685466    -0.23900
C332        C  0.80568963  0.17316844  0.91093158     0.18300
C333        C  0.82947537  0.21119418  0.93865686     0.15600
C334        C  0.82622163  0.21061830  0.99109874    -0.18900
C335        C  0.85387703  0.24977316  0.91346078    -0.20700
C336        C  0.85257929  0.25129466  0.86114947    -0.13300
C337        C  0.82729949  0.21421569  0.83296540     0.03400
C338        C  0.80514334  0.17483998  0.85799579    -0.25400
H339        H  0.75577508  0.10523571  0.00864209     0.08500
H340        H  0.76255656  0.10520554  0.91634504     0.12100
H341        H  0.84251875  0.24016832  0.01208396     0.12000
H342        H  0.87254867  0.27906815  0.93428355     0.11800
H343        H  0.87050064  0.28188213  0.84278968     0.12300
H344        H  0.78565323  0.14602756  0.83663219     0.14200
C345        C  0.80572300  0.18743523  0.32976846    -0.05800
C346        C  0.76305619  0.16564022  0.34607875    -0.05700
C347        C  0.75324087  0.15317514  0.39599939    -0.23900
C348        C  0.78618369  0.16374623  0.43087739     0.18300
C349        C  0.82922126  0.18339349  0.41447405     0.15600
C350        C  0.83876618  0.19434927  0.36332194    -0.18900
C351        C  0.86194380  0.19483457  0.45025875    -0.20700
C352        C  0.85244719  0.19081805  0.50180385    -0.13300
C353        C  0.80999682  0.17448408  0.51814236     0.03400
C354        C  0.77687357  0.15847109  0.48230459    -0.25400
H355        H  0.73730417  0.16007467  0.32043828     0.08500
H356        H  0.72012750  0.13792057  0.40792806     0.12100
H357        H  0.87173364  0.21143900  0.35074827     0.12000
H358        H  0.89506944  0.20943793  0.43855981     0.11800
H359        H  0.87854243  0.20281151  0.52873471     0.12300
H360        H  0.74392386  0.14517784  0.49431264     0.14200
C361        C  0.53641438  0.22296113  0.77195213    -0.05800
C362        C  0.54139405  0.22402208  0.71962999    -0.05700
C363        C  0.57874856  0.22791941  0.69876416    -0.23900
C364        C  0.61190234  0.23139236  0.73002001     0.18300
C365        C  0.60771578  0.23151421  0.78282655     0.15600
C366        C  0.56973133  0.22695141  0.80350876    -0.18900
C367        C  0.64144422  0.23581883  0.81377505    -0.20700
C368        C  0.67848161  0.23876581  0.79259965    -0.13300
C369        C  0.68226406  0.23717660  0.74014556     0.03400
C370        C  0.64890723  0.23418276  0.70921386    -0.25400
H371        H  0.51608446  0.22116541  0.69497717     0.08500
H372        H  0.58162526  0.22798738  0.65816156     0.12100
H373        H  0.56603039  0.22660296  0.84403983     0.12000
H374        H  0.63893242  0.23634220  0.85437902     0.11800
H375        H  0.70359231  0.24115051  0.81721224     0.12300
H376        H  0.65145588  0.23355115  0.66859606     0.14200
C377        C  0.67483084  0.45204611  0.92348018    -0.05800
C378        C  0.68109586  0.42105015  0.89968513    -0.05700
C379        C  0.64639222  0.38023746  0.89064698    -0.23900
C380        C  0.60501969  0.36957893  0.90616136     0.18300
C381        C  0.59848048  0.40083572  0.92932444     0.15600
C382        C  0.63315066  0.44177652  0.93714635    -0.18900
C383        C  0.55736595  0.39063965  0.94486801    -0.20700
C384        C  0.52265152  0.35014070  0.93623963    -0.13300
C385        C  0.52853267  0.31892223  0.91281091     0.03400
C386        C  0.56994047  0.32851910  0.89845411    -0.25400
H387        H  0.71295793  0.42805246  0.88921708     0.08500
H388        H  0.65203349  0.35681732  0.87254390     0.12100
H389        H  0.62782619  0.46509797  0.95612393     0.12000
H390        H  0.55190088  0.41426734  0.96274491     0.11800
H391        H  0.49085111  0.34345582  0.94657367     0.12300
H392        H  0.57441643  0.30485320  0.87897314     0.14200
C393        C  0.52998599  0.22144433  0.25258469    -0.05800
C394        C  0.52327918  0.18549908  0.22536211    -0.05700
C395        C  0.55766936  0.18003440  0.21221060    -0.23900
C396        C  0.59944840  0.20996890  0.22703299     0.18300
C397        C  0.60690012  0.24700713  0.25298191     0.15600
C398        C  0.57212403  0.25283750  0.26497947    -0.18900
C399        C  0.64878873  0.27665805  0.26806050    -0.20700
C400        C  0.68286859  0.26971522  0.25761129    -0.13300
C401        C  0.67576771  0.23279558  0.23221249     0.03400
C402        C  0.63372988  0.20307030  0.21704348    -0.25400
H403        H  0.49105799  0.16064888  0.21619977     0.08500
H404        H  0.55136081  0.15151642  0.19212493     0.12100
H405        H  0.57749272  0.28011948  0.28719097     0.12000
H406        H  0.65521850  0.30526119  0.28803750     0.11800
H407        H  0.71489154  0.29344348  0.26907566     0.12300
H408        H  0.62766457  0.17473280  0.19667857     0.14200
C409        C  0.54022958  0.32093810  0.40267450    -0.05800
C410        C  0.57246083  0.31526896  0.42481786    -0.05700
C411        C  0.61265600  0.35027856  0.43537217    -0.23900
C412        C  0.62138632  0.39142824  0.42348674     0.18300
C413        C  0.58891331  0.39749394  0.40201121     0.15600
C414        C  0.54859595  0.36230143  0.39208341    -0.18900
C415        C  0.59735581  0.43866332  0.39076851    -0.20700
C416        C  0.63725501  0.47368103  0.40207148    -0.13300
C417        C  0.66956652  0.46788216  0.42350045     0.03400
C418        C  0.66173035  0.42669263  0.43341879    -0.25400
H419        H  0.56683905  0.28371853  0.43302190     0.03700
H420        H  0.63713732  0.34511596  0.45224386     0.12100
H421        H  0.52413349  0.36713848  0.37450035     0.12000
H422        H  0.57275272  0.44383996  0.37429992     0.11800
H423        H  0.64270463  0.50535736  0.39510215     0.12300
H424        H  0.68633647  0.42226491  0.45139556     0.14200
C425        C  0.38037036  0.16236581  0.50217768    -0.05800
C426        C  0.41011799  0.15602000  0.52954290    -0.05700
C427        C  0.41082328  0.15707001  0.58184248    -0.23900
C428        C  0.38206023  0.16505599  0.60798792     0.18300
C429        C  0.35000949  0.16882630  0.58160005     0.15600
C430        C  0.34894310  0.16688213  0.52836609    -0.18900
C431        C  0.32160965  0.17712936  0.60900007    -0.20700
C432        C  0.32698798  0.18449985  0.66128792    -0.13300
C433        C  0.36079776  0.18361368  0.68651541     0.03400
C434        C  0.38686890  0.17201008  0.65989446    -0.25400
H435        H  0.43437428  0.15218927  0.51019252     0.08500
H436        H  0.43530337  0.15381113  0.60169928     0.12100
H437        H  0.32613815  0.17215135  0.50755871     0.12000
H438        H  0.29655621  0.17978879  0.58973828     0.11800
H439        H  0.30636984  0.19313495  0.68132364     0.12300
H440        H  0.41257370  0.17053658  0.67938345     0.14200
C441        C  0.36292509  0.15923743  0.00455667    -0.05800
C442        C  0.36870711  0.13056503  0.03424403    -0.05700
C443        C  0.36531536  0.13076116  0.08669986    -0.23900
C444        C  0.35717524  0.16048571  0.11035942     0.18300
C445        C  0.34977916  0.18855219  0.08069442     0.15600
C446        C  0.35226894  0.18742991  0.02781218    -0.18900
C447        C  0.34301831  0.21917191  0.10457815    -0.20700
C448        C  0.34630934  0.22370227  0.15710134    -0.13300
C449        C  0.35542954  0.19712213  0.18648149     0.03400
C450        C  0.35948945  0.16469637  0.16306821    -0.25400
H451        H  0.37770302  0.10922641  0.01689242     0.08500
H452        H  0.37119128  0.10914445  0.10884509     0.12100
H453        H  0.34887596  0.21032920  0.00501532     0.12000
H454        H  0.33750396  0.24106578  0.08251584     0.11800
H455        H  0.34418139  0.24949872  0.17453015     0.12300
H456        H  0.36768714  0.14489603  0.18564275     0.14200
C457        C  0.93369822  0.29955726  0.64463804    -0.05800
C458        C  0.95819140  0.27939723  0.65023518    -0.05700
C459        C  0.99810557  0.29558105  0.62747423    -0.23900
C460        C  0.01506536  0.33268642  0.59867595     0.18300
C461        C  0.99201481  0.35454719  0.59388149     0.15600
C462        C  0.95122696  0.33773039  0.61670167    -0.18900
C463        C  0.01022919  0.39252935  0.56596661    -0.20700
C464        C  0.05049195  0.40832708  0.54304820    -0.13300
C465        C  0.07283937  0.38591350  0.54651044     0.03400
C466        C  0.05474726  0.34808784  0.57456304    -0.25400
H467        H  0.94606087  0.25018317  0.67146969     0.08500
H468        H  0.01556170  0.27867999  0.63200498     0.12100
H469        H  0.93296447  0.35377709  0.61191153     0.12000
H470        H  0.99339677  0.41006906  0.56192896     0.11800
H471        H  0.06387313  0.43770890  0.52193477     0.12300
H472        H  0.07201798  0.33091565  0.57837766     0.14200
C473        C  0.29700736  0.38072072  0.46234695    -0.05800
C474        C  0.33983754  0.40707280  0.44727388    -0.05700
C475        C  0.36211279  0.39014140  0.42178633    -0.23900
C476        C  0.34201890  0.34650136  0.41056309     0.18300
C477        C  0.29873370  0.32014883  0.42465321     0.15600
C478        C  0.27672127  0.33727741  0.45011649    -0.18900
C479        C  0.27807536  0.27670073  0.41391070    -0.20700
C480        C  0.30030103  0.25898805  0.39131823    -0.13300
C481        C  0.34371460  0.28412518  0.37812509     0.03400
C482        C  0.36434474  0.32837741  0.38677255    -0.25400
H483        H  0.35623580  0.44075897  0.45546979     0.08500
H484        H  0.39517966  0.41114934  0.41126050     0.12100
H485        H  0.24356388  0.31648935  0.46058259     0.12000
H486        H  0.24483381  0.25608609  0.42410327     0.11800
H487        H  0.28349077  0.22499699  0.38485944     0.12300
H488        H  0.39785479  0.34814403  0.37719664     0.14200
C489        C  0.16545829  0.37275710  0.84868313    -0.05800
C490        C  0.12718542  0.35744580  0.82135634    -0.05700
C491        C  0.12715537  0.35368775  0.76872751    -0.23900
C492        C  0.16550417  0.36553447  0.74289983     0.18300
C493        C  0.20352574  0.37853358  0.77086184     0.15600
C494        C  0.20315694  0.38185839  0.82342222    -0.18900
C495        C  0.24197063  0.39070196  0.74569436    -0.20700
C496        C  0.24352579  0.39282260  0.69325062    -0.13300
C497        C  0.20660229  0.38235012  0.66472145     0.03400
C498        C  0.16718345  0.36712286  0.68980573    -0.25400
H499        H  0.09798634  0.35089344  0.84032235     0.08500
H500        H  0.09761957  0.34350928  0.74808027     0.12100
H501        H  0.23284265  0.39418757  0.84453599     0.12000
H502        H  0.27128391  0.40036721  0.76663567     0.11800
H503        H  0.27416144  0.40419325  0.67502011     0.12300
H504        H  0.13848479  0.35908093  0.66832840     0.14200
C505        C  0.20017963  0.37972360  0.16439243    -0.05800
C506        C  0.21440971  0.35571491  0.19097553    -0.05700
C507        C  0.20927710  0.35124178  0.24348956    -0.23900
C508        C  0.18960904  0.37053437  0.26966925     0.18300
C509        C  0.17337157  0.39276407  0.24216044     0.15600
C510        C  0.17885623  0.39724963  0.19003245    -0.18900
C511        C  0.15339922  0.41184235  0.26724794    -0.20700
C512        C  0.15130804  0.41087919  0.31951037    -0.13300
C513        C  0.16924588  0.39096153  0.34801013     0.03400
C514        C  0.18739435  0.36966913  0.32274153    -0.25400
H515        H  0.23122218  0.34226310  0.17157622     0.08500
H516        H  0.22178790  0.33389613  0.26370724     0.12100
H517        H  0.16781397  0.41573433  0.16938439     0.12000
H518        H  0.14053837  0.42865634  0.24653745     0.11800
H519        H  0.13688639  0.42729188  0.33769593     0.12300
H520        H  0.20142906  0.35429776  0.34417247     0.14200
C521        C  0.06508877  0.36702857  0.03992393    -0.05800
C522        C  0.03049212  0.34910884  0.00612209    -0.05700
C523        C  0.98834299  0.32693142  0.02398375    -0.23900
C524        C  0.98007266  0.32306947  0.07597366     0.18300
C525        C  0.01455827  0.34324513  0.11030008     0.15600
C526        C  0.05687878  0.36456749  0.09206570    -0.18900
C527        C  0.00605317  0.34061133  0.16223810    -0.20700
C528        C  0.96391096  0.31700459  0.18008021    -0.13300
C529        C  0.92972936  0.29481923  0.14637469     0.03400
C530        C  0.93805699  0.29851846  0.09426447    -0.25400
H531        H  0.03615793  0.35030809  0.96597404     0.08500
H532        H  0.96221668  0.31194798  0.99712677     0.12100
H533        H  0.08351342  0.37842689  0.11839630     0.12000
H534        H  0.03206972  0.35624222  0.18911128     0.11800
H535        H  0.95819362  0.31463582  0.22026871     0.12300
H536        H  0.91173352  0.28189926  0.06793510     0.14200
C537        C  0.28795897  0.36144430  0.97375465    -0.05800
C538        C  0.30936552  0.34920968  0.00818941    -0.05700
C539        C  0.32871530  0.32615598  0.99190999    -0.23900
C540        C  0.32783497  0.31588562  0.94073101     0.18300
C541        C  0.30805526  0.32981442  0.90548144     0.15600
C542        C  0.28772719  0.35189457  0.92232620    -0.18900
C543        C  0.30840215  0.32085262  0.85408881    -0.20700
C544        C  0.32778434  0.29789243  0.83777186    -0.13300
C545        C  0.34606634  0.28254520  0.87265858     0.03400
C546        C  0.34595779  0.29160576  0.92417955    -0.25400
H547        H  0.30944624  0.35581746  0.04795701     0.08500
H548        H  0.34393110  0.31591666  0.01942795     0.12100
H549        H  0.27127191  0.36130153  0.89550704     0.12000
H550        H  0.29351238  0.33143664  0.82655288     0.11800
H551        H  0.32727919  0.29089805  0.79805449     0.12300
H552        H  0.36018287  0.27989492  0.95125542     0.14200
C553        C  0.70058534  0.08119054  0.70816329    -0.05800
C554        C  0.65615630  0.06333972  0.71450223    -0.05700
C555        C  0.63204821  0.02411592  0.73908027    -0.23900
C556        C  0.65201201  0.00223040  0.75810327     0.18300
C557        C  0.69685578  0.02071270  0.75290757     0.15600
C558        C  0.72060095  0.05968860  0.72811647    -0.18900
C559        C  0.71740237  0.99961445  0.77171745    -0.20700
C560        C  0.69365598  0.95956224  0.79326912    -0.13300
C561        C  0.64885955  0.93976416  0.79706450     0.03400
C562        C  0.62812753  0.96179958  0.78081151    -0.25400
H563        H  0.64000656  0.07949723  0.70003642     0.08500
H564        H  0.59777151  0.01072792  0.74277451     0.12100
H565        H  0.75494745  0.07333844  0.72443895     0.12000
H566        H  0.75180526  0.01356695  0.76847855     0.11800
H567        H  0.71034623  0.94340577  0.80596520     0.12300
H568        H  0.59357094  0.94669596  0.78337879     0.14200
C569        C  0.63178567  0.70862618  0.86420088    -0.05800
C570        C  0.63843731  0.68336520  0.82960104    -0.05700
C571        C  0.65824052  0.66042646  0.84481625    -0.23900
C572        C  0.67083443  0.66166193  0.89519980     0.18300
C573        C  0.66271304  0.68570284  0.93067773     0.15600
C574        C  0.64386784  0.70948739  0.91483160    -0.18900
C575        C  0.67405164  0.68598745  0.98136554    -0.20700
C576        C  0.69383253  0.66313025  0.99665519    -0.13300
C577        C  0.70345837  0.64050163  0.96143017     0.03400
C578        C  0.69190211  0.63977978  0.91065658    -0.25400
H579        H  0.62967159  0.68253660  0.79036315     0.08500
H580        H  0.66400682  0.64204372  0.81717859     0.12100
H581        H  0.63867284  0.72874464  0.94182195     0.12000
H582        H  0.66796231  0.70413056  0.00902728     0.11800
H583        H  0.70307570  0.66436759  0.03578116     0.12300
H584        H  0.69950563  0.62243357  0.88340577     0.14200
C585        C  0.44886283  0.68869188  0.89642658    -0.05800
C586        C  0.41915105  0.69558857  0.92281189    -0.05700
C587        C  0.37934321  0.66121291  0.93692511    -0.23900
C588        C  0.36827260  0.61939000  0.92436832     0.18300
C589        C  0.39812703  0.61223827  0.89818242     0.15600
C590        C  0.43802500  0.64670396  0.88477315    -0.18900
C591        C  0.38765112  0.57066344  0.88585489    -0.20700
C592        C  0.34859621  0.53623330  0.90080748    -0.13300
C593        C  0.31875637  0.54269199  0.92733993     0.03400
C594        C  0.32840582  0.58448817  0.93812508    -0.25400
H595        H  0.42651283  0.72753248  0.93196032     0.08500
H596        H  0.35698442  0.66739591  0.95732162     0.12100
H597        H  0.46031281  0.64072495  0.86388687     0.12000
H598        H  0.41020706  0.56465792  0.86564591     0.11800
H599        H  0.34198925  0.50433322  0.89269381     0.12300
H600        H  0.30576638  0.58970617  0.95938217     0.14200
C601        C  0.69823317  0.07147382  0.20187800    -0.05800
C602        C  0.68394232  0.03768056  0.16772843    -0.05700
C603        C  0.66615265  0.99594366  0.18534901    -0.23900
C604        C  0.66210914  0.98754839  0.23730021     0.18300
C605        C  0.67376633  0.02115581  0.27180845     0.15600
C606        C  0.69200051  0.06293016  0.25380650    -0.18900
C607        C  0.66873752  0.01255227  0.32373365    -0.20700
C608        C  0.65379744  0.97117945  0.34141805    -0.13300
C609        C  0.64460927  0.93817094  0.30743399     0.03400
C610        C  0.64806206  0.94642397  0.25539587    -0.25400
H611        H  0.68917511  0.04382917  0.12772619     0.08500
H612        H  0.65703905  0.97040134  0.15841857     0.12100
H613        H  0.70325463  0.08907596  0.28027135     0.12000
H614        H  0.67720343  0.03795742  0.35065816     0.11800
H615        H  0.65098527  0.96525876  0.38159064     0.12300
H616        H  0.64022034  0.92078040  0.22895578     0.14200
C617        C  0.70367683  0.64078217  0.46242913    -0.05800
C618        C  0.67849135  0.65000236  0.49430208    -0.05700
C619        C  0.65456331  0.66743468  0.47462883    -0.23900
C620        C  0.65489151  0.67516133  0.42270064     0.18300
C621        C  0.67787278  0.66334048  0.38991272     0.15600
C622        C  0.70234358  0.64653733  0.41006707    -0.18900
C623        C  0.67746020  0.67031303  0.33783493    -0.20700
C624        C  0.65662261  0.69121383  0.31875674    -0.13300
C625        C  0.63617732  0.70555145  0.35155481     0.03400
C626        C  0.63442998  0.69637825  0.40328944    -0.25400
H627        H  0.67892291  0.64560079  0.53459169     0.08500
H628        H  0.63675766  0.67600185  0.50021009     0.12100
H629        H  0.72124606  0.63886942  0.38511746     0.12000
H630        H  0.69468409  0.66113011  0.31212993     0.11800
H631        H  0.65880088  0.69856639  0.27896304     0.12300
H632        H  0.61884030  0.70767783  0.42875927     0.14200
C633        C  0.45840915  0.68812646  0.39296876    -0.05800
C634        C  0.44072283  0.69489961  0.43646422    -0.05700
C635        C  0.40108625  0.66343870  0.45427912    -0.23900
C636        C  0.37803414  0.62487186  0.42832128     0.18300
C637        C  0.39471605  0.61791741  0.38361423     0.15600
C638        C  0.43519494  0.64950184  0.36645525    -0.18900
C639        C  0.37070615  0.57934579  0.35740956    -0.20700
C640        C  0.33158342  0.54724069  0.37679483    -0.13300
C641        C  0.31625459  0.55339081  0.42261084     0.03400
C642        C  0.33911557  0.59267960  0.44735258    -0.25400
H643        H  0.45777222  0.72462913  0.45691431     0.08500
H644        H  0.38846627  0.66923504  0.48841399     0.12100
H645        H  0.44815243  0.64449587  0.33209356     0.12000
H646        H  0.38277703  0.57354170  0.32282972     0.11800
H647        H  0.31465445  0.51691041  0.35765066     0.12300
H648        H  0.32739640  0.59747167  0.48281489     0.14200
C649        C  0.63788011  0.82753216  0.48976869    -0.05800
C650        C  0.65763184  0.86648501  0.51538947    -0.05700
C651        C  0.66284859  0.86765080  0.56779204    -0.23900
C652        C  0.64849127  0.82980883  0.59511428     0.18300
C653        C  0.63133265  0.79076508  0.56885032     0.15600
C654        C  0.62603178  0.78989917  0.51639061    -0.18900
C655        C  0.61681067  0.75285803  0.59580016    -0.20700
C656        C  0.61557885  0.75312398  0.64830592    -0.13300
C657        C  0.62957342  0.79125624  0.67469169     0.03400
C658        C  0.64784653  0.82984362  0.64816226    -0.25400
H659        H  0.66661967  0.89569881  0.49526826     0.08500
H660        H  0.67622539  0.89787447  0.58714367     0.12100
H661        H  0.61062847  0.75978270  0.49653793     0.12000
H662        H  0.60391938  0.72274871  0.57627783     0.11800
H663        H  0.60093542  0.72312045  0.66831762     0.12300
H664        H  0.65782356  0.85921638  0.66844642     0.14200
C665        C  0.63731560  0.81960142  0.17077960    -0.05800
C666        C  0.66509182  0.81063545  0.14354828    -0.05700
C667        C  0.66939451  0.81747614  0.09126723    -0.23900
C668        C  0.64568446  0.83300417  0.06589485     0.18300
C669        C  0.62017587  0.84486100  0.09414397     0.15600
C670        C  0.61679484  0.83873213  0.14623121    -0.18900
C671        C  0.59561717  0.85947256  0.06960209    -0.20700
C672        C  0.59342236  0.85900612  0.01725916    -0.13300
C673        C  0.61663644  0.84509248  0.98854187     0.03400
C674        C  0.64439434  0.83399170  0.01286856    -0.25400
H675        H  0.68113623  0.79585148  0.16199550     0.08500
H676        H  0.68930434  0.80840750  0.07037816     0.12100
H677        H  0.59560995  0.84604976  0.16737546     0.12000
H678        H  0.57613557  0.86887550  0.09086276     0.11800
H679        H  0.57208666  0.86787220  0.99909031     0.12300
H680        H  0.66200212  0.82279457  0.99081814     0.14200
C681        C  0.92738768  0.63193089  0.52504610    -0.05800
C682        C  0.96160758  0.64258114  0.49215062    -0.05700
C683        C  0.00355617  0.66123932  0.51083462    -0.23900
C684        C  0.01171311  0.66886652  0.56269108     0.18300
C685        C  0.97705365  0.65523405  0.59638871     0.15600
C686        C  0.93521834  0.63718708  0.57726027    -0.18900
C687        C  0.98508185  0.66184376  0.64836190    -0.20700
C688        C  0.02718487  0.68404768  0.66661175    -0.13300
C689        C  0.06173240  0.70039160  0.63304692     0.03400
C690        C  0.05383780  0.69172933  0.58126378    -0.25400
H691        H  0.95616866  0.63877452  0.45190288     0.08500
H692        H  0.02979755  0.67109544  0.48451736     0.12100
H693        H  0.90875080  0.62859635  0.60290862     0.12000
H694        H  0.95877915  0.65121832  0.67475768     0.11800
H695        H  0.03274709  0.69073286  0.70649884     0.12300
H696        H  0.08058454  0.70435387  0.55523834     0.14200
C697        C  0.28288680  0.93479684  0.69425292    -0.05800
C698        C  0.30842129  0.96978193  0.66332498    -0.05700
C699        C  0.33370822  0.01028724  0.68444262    -0.23900
C700        C  0.33457072  0.01622446  0.73684705     0.18300
C701        C  0.31081464  0.98075260  0.76838211     0.15600
C702        C  0.28490722  0.94052138  0.74678859    -0.18900
C703        C  0.31247470  0.98642541  0.82083115    -0.20700
C704        C  0.33564769  0.02711279  0.84190455    -0.13300
C705        C  0.35725360  0.06276786  0.81071987     0.03400
C706        C  0.35733612  0.05703865  0.75825560    -0.25400
H707        H  0.30763932  0.96601360  0.62284958     0.08500
H708        H  0.35208206  0.03714933  0.65967671     0.12100
H709        H  0.26605438  0.91340256  0.77100875     0.12000
H710        H  0.29463580  0.95943760  0.84554014     0.11800
H711        H  0.33450001  0.03101217  0.88216273     0.12300
H712        H  0.37363388  0.08467129  0.73395326     0.14200
C713        C  0.45366250  0.78209369  0.74934825    -0.05800
C714        C  0.42117541  0.74384097  0.72857637    -0.05700
C715        C  0.38060440  0.73835501  0.71846067    -0.23900
C716        C  0.37171016  0.77087700  0.72954592     0.18300
C717        C  0.40453948  0.80987835  0.74903304     0.15600
C718        C  0.44527209  0.81537074  0.75824812    -0.18900
C719        C  0.39599425  0.84265456  0.75971675    -0.20700
C720        C  0.35547541  0.83719041  0.75023283    -0.13300
C721        C  0.32262163  0.79862409  0.73093221     0.03400
C722        C  0.33073242  0.76529514  0.72112755    -0.25400
H723        H  0.42669922  0.71762153  0.72166341     0.08500
H724        H  0.35595667  0.70839181  0.70308655     0.12100
H725        H  0.46982535  0.84494674  0.77460322     0.12000
H726        H  0.42082505  0.87273779  0.77462126     0.11800
H727        H  0.34995344  0.86343619  0.75703995     0.12300
H728        H  0.30582378  0.73590392  0.70475814     0.14200
C729        C  0.23325365  0.55220968  0.59743518    -0.05800
C730        C  0.20081811  0.54494306  0.63161893    -0.05700
C731        C  0.19268498  0.57773832  0.64364508    -0.23900
C732        C  0.21647007  0.61780065  0.62074748     0.18300
C733        C  0.25088733  0.62588686  0.58879274     0.15600
C734        C  0.25945087  0.59321758  0.57802336    -0.18900
C735        C  0.27471158  0.66576460  0.56571178    -0.20700
C736        C  0.26404425  0.69728739  0.57374660    -0.13300
C737        C  0.22923915  0.68935093  0.60441159     0.03400
C738        C  0.20567100  0.64947999  0.62811658    -0.25400
H739        H  0.17959454  0.51319958  0.64566565     0.08500
H740        H  0.16635007  0.57110344  0.66844994     0.12100
H741        H  0.28386329  0.59853381  0.55088146     0.12000
H742        H  0.30119469  0.67237701  0.54130357     0.11800
H743        H  0.28323101  0.72807672  0.55602413     0.12300
H744        H  0.17950764  0.64335790  0.65293352     0.14200
C745        C  0.92725036  0.63491418  0.03137423    -0.05800
C746        C  0.95795844  0.63139919  0.00259391    -0.05700
C747        C  0.00043690  0.64962795  0.01949751    -0.23900
C748        C  0.01281204  0.67117448  0.06581441     0.18300
C749        C  0.98172455  0.67343407  0.09583891     0.15600
C750        C  0.93941177  0.65556576  0.07834792    -0.18900
C751        C  0.99365883  0.69440690  0.14243236    -0.20700
C752        C  0.03625278  0.71411826  0.15855302    -0.13300
C753        C  0.06757381  0.71319552  0.12845181     0.03400
C754        C  0.05577119  0.69140379  0.08220964    -0.25400
H755        H  0.94939775  0.61559150  0.96637887     0.08500
H756        H  0.02372389  0.64735492  0.99603793     0.12100
H757        H  0.91593817  0.65807710  0.10124739     0.12000
H758        H  0.97019690  0.69635023  0.16594001     0.11800
H759        H  0.04509774  0.73137030  0.19386539     0.12300
H760        H  0.08013815  0.69122649  0.05859146     0.14200
C761        C  0.29540866  0.93676603  0.19654321    -0.05800
C762        C  0.32730944  0.97011053  0.16804783    -0.05700
C763        C  0.35096312  0.01104411  0.18866134    -0.23900
C764        C  0.34342814  0.01904522  0.23827434     0.18300
C765        C  0.31258727  0.98521479  0.26774758     0.15600
C766        C  0.28879543  0.94459264  0.24667244    -0.18900
C767        C  0.30515502  0.99271965  0.31750231    -0.20700
C768        C  0.32707575  0.03372758  0.33749650    -0.13300
C769        C  0.35653178  0.06774122  0.30802191     0.03400
C770        C  0.36506645  0.06033926  0.25857507    -0.25400
H771        H  0.33303022  0.96482082  0.12945054     0.08500
H772        H  0.37463070  0.03655372  0.16557332     0.12100
H773        H  0.26464638  0.91901328  0.26932654     0.12000
H774        H  0.28159138  0.96705443  0.34051612     0.11800
H775        H  0.31966939  0.03925848  0.37525850     0.12300
H776        H  0.38742221  0.08686755  0.23558465     0.14200
C777        C  0.32606502  0.78316013  0.21732464    -0.05800
C778        C  0.32061976  0.74275167  0.22747328    -0.05700
C779        C  0.35569113  0.73783262  0.23891130    -0.23900
C780        C  0.39701344  0.77324887  0.24081853     0.18300
C781        C  0.40304749  0.81416222  0.23125173     0.15600
C782        C  0.36760648  0.81886313  0.21931026    -0.18900
C783        C  0.44439910  0.84965232  0.23419636    -0.20700
C784        C  0.47910849  0.84474651  0.24816166    -0.13300
C785        C  0.47327797  0.80421017  0.25827955     0.03400
C786        C  0.43221181  0.76846503  0.25338791    -0.25400
H787        H  0.28921845  0.71459802  0.22540645     0.08500
H788        H  0.35046260  0.70625574  0.24621872     0.12100
H789        H  0.37243405  0.85017406  0.21113490     0.12000
H790        H  0.44972696  0.88126243  0.22696124     0.11800
H791        H  0.51046934  0.87277281  0.25201951     0.12300
H792        H  0.42724894  0.73716104  0.26202319     0.14200
C793        C  0.21893121  0.54535474  0.07639147    -0.05800
C794        C  0.18273467  0.54006285  0.10228989    -0.05700
C795        C  0.17735756  0.57479953  0.11178257    -0.23900
C796        C  0.20752665  0.61526855  0.09434353     0.18300
C797        C  0.24490638  0.62137659  0.06983484     0.15600
C798        C  0.25074948  0.58636611  0.06188465    -0.18900
C799        C  0.27481896  0.66206843  0.05232557    -0.20700
C800        C  0.26790001  0.69637629  0.05929763    -0.13300
C801        C  0.23063355  0.69041435  0.08336456     0.03400
C802        C  0.20059013  0.64956405  0.10056501    -0.25400
H803        H  0.15772180  0.50864950  0.11327420     0.08500
H804        H  0.14865613  0.56968300  0.13101629     0.12100
H805        H  0.27853764  0.59053771  0.04123892     0.12000
H806        H  0.30373406  0.66741647  0.03338594     0.11800
H807        H  0.29192393  0.72763024  0.04665163     0.12300
H808        H  0.17208730  0.64451109  0.12026600     0.14200
C809        C  0.15828245  0.80031608  0.82028181    -0.05800
C810        C  0.12607255  0.76789519  0.84926405    -0.05700
C811        C  0.12628291  0.77164254  0.90174549    -0.23900
C812        C  0.15932233  0.80752433  0.92588005     0.18300
C813        C  0.19064087  0.84124317  0.89661629     0.15600
C814        C  0.18964289  0.83746465  0.84396476    -0.18900
C815        C  0.22432574  0.87660677  0.92066737    -0.20700
C816        C  0.22886140  0.87714043  0.97301338    -0.13300
C817        C  0.19929583  0.84273941  0.00199039     0.03400
C818        C  0.16365442  0.80874448  0.97855773    -0.25400
H819        H  0.10215529  0.73872010  0.83150537     0.08500
H820        H  0.10206047  0.74548881  0.92356768     0.12100
H821        H  0.21506965  0.86203467  0.82163615     0.12000
H822        H  0.24859960  0.90263900  0.89882657     0.11800
H823        H  0.25688496  0.90311541  0.99058655     0.12300
H824        H  0.14134324  0.78173320  0.00095928     0.14200
C825        C  0.16406916  0.78535940  0.31678099    -0.05800
C826        C  0.14764823  0.74717766  0.34379031    -0.05700
C827        C  0.14607060  0.74706490  0.39623196    -0.23900
C828        C  0.16199879  0.78536689  0.42265953     0.18300
C829        C  0.17667528  0.82390887  0.39597926     0.15600
C830        C  0.17703386  0.82358759  0.34285602    -0.18900
C831        C  0.19318627  0.86219805  0.42305863    -0.20700
C832        C  0.19744473  0.86249232  0.47567387    -0.13300
C833        C  0.18522991  0.82453147  0.50171498     0.03400
C834        C  0.16616989  0.78597495  0.47518097    -0.25400
H835        H  0.13755021  0.71750901  0.32420536     0.08500
H836        H  0.13446199  0.71726732  0.41615836     0.12100
H837        H  0.19029271  0.85319771  0.32211511     0.12000
H838        H  0.20457838  0.89207061  0.40339373     0.11800
H839        H  0.21254182  0.89251450  0.49561123     0.12300
H840        H  0.15675762  0.75661334  0.49531957     0.14200
loop_ 
_geom_bond_atom_site_label_1 
_geom_bond_atom_site_label_2 
_geom_bond_distance 
_geom_bond_site_symmetry_2 
_ccdc_geom_bond_type 
O1          Cr19   2.023       .  S
O1            C9   1.268       .  A
O2          Cr19   1.970       .  S
O2            C3   1.256       .  A
C3            O4   1.267       .  A
C3          C753   1.471       .  S
O4          Cr20   2.023       .  S
O5          Cr20   1.961       .  S
O5            C6   1.256       .  A
C6            O7   1.268       .  A
C6          C801   1.481       .  S
O7          Cr21   2.029       .  S
O8          Cr21   1.963       .  S
O8            C9   1.257       .  A
C9          C817   1.467       .  S
O10         Cr19   1.959       .  S
O10          C18   1.256       .  A
O11         Cr19   2.026       .  S
O11          C12   1.269       .  A
C12          O13   1.258       .  A
C12         C825   1.474       .  S
O13         Cr20   1.958       .  S
O14         Cr20   2.023       .  S
O14          C15   1.272       .  A
C15          O16   1.262       .  A
C15         C777   1.485       .  S
O16         Cr21   1.974       .  S
O17         Cr21   2.033       .  S
O17          C18   1.270       .  A
C18         C761   1.482       .  S
Cr19         O22   1.771       .  S
Cr20         O22   1.765       .  S
Cr21         O22   1.777       .  S
O23         Cr41   2.033       .  S
O23          C31   1.270       .  A
O24         Cr41   1.967       .  S
O24          C25   1.258       .  A
C25          O26   1.272       .  A
C25         C689   1.475       .  S
O26         Cr42   2.034       .  S
O27         Cr42   1.963       .  S
O27          C28   1.258       .  A
C28          O29   1.268       .  A
C28         C737   1.476       .  S
O29         Cr43   2.019       .  S
O30         Cr43   1.962       .  S
O30          C31   1.257       .  A
C31         C833   1.474       .  S
O32         Cr41   1.973       .  S
O32          C40   1.258       .  A
O33         Cr41   2.026       .  S
O33          C34   1.268       .  A
C34          O35   1.256       .  A
C34         C809   1.469       .  S
O35         Cr42   1.963       .  S
O36         Cr42   2.030       .  S
O36          C37   1.271       .  A
C37          O38   1.258       .  A
C37         C721   1.470       .  S
O38         Cr43   1.963       .  S
O39         Cr43   2.029       .  S
O39          C40   1.269       .  A
C40         C697   1.482       .  S
Cr41         O44   1.766       .  S
Cr42         O44   1.767       .  S
Cr43         O44   1.763       .  S
O45         Cr63   2.028       .  S
O45          C53   1.269       .  A
O46         Cr63   1.957       .  S
O46          C47   1.257       .  A
C47          O48   1.275       .  A
C47         C625   1.475       .  S
O48         Cr64   2.042       .  S
O49         Cr64   1.970       .  S
O49          C50   1.260       .  A
C50          O51   1.268       .  A
C50         C633   1.476       .  S
O51         Cr65   2.012       .  S
O52         Cr65   1.969       .  S
O52          C53   1.258       .  A
C53         C649   1.471       .  S
O54         Cr63   1.966       .  S
O54          C62   1.257       .  A
O55         Cr63   2.026       .  S
O55          C56   1.266       .  A
C56          O57   1.254       .  A
C56         C665   1.473       .  S
O57         Cr64   1.956       .  S
O58         Cr64   2.028       .  S
O58          C59   1.272       .  A
C59          O60   1.259       .  A
C59         C785   1.478       .  S
O60         Cr65   1.968       .  S
O61         Cr65   2.024       .  S
O61          C62   1.268       .  A
C62         C609   1.474       .  S
Cr63         O66   1.771       .  S
Cr64         O66   1.768       .  S
Cr65         O66   1.761       .  S
O67         Cr85   2.017       .  S
O67          C75   1.267       .  A
O68         Cr85   1.967       .  S
O68          C69   1.253       .  A
C69          O70   1.266       .  A
C69         C569   1.479       .  S
O70         Cr86   2.027       .  S
O71         Cr86   1.963       .  S
O71          C72   1.261       .  A
C72          O73   1.275       .  A
C72         C585   1.487       .  S
O73         Cr87   2.041       .  S
O74         Cr87   1.957       .  S
O74          C75   1.258       .  A
C75         C673   1.473       .  S
O76         Cr85   1.952       .  S
O76          C84   1.256       .  A
O77         Cr85   2.036       .  S
O77          C78   1.273       .  A
C78          O79   1.258       .  A
C78         C657   1.469       .  S
O79         Cr86   1.953       .  S
O80         Cr86   2.021       .  S
O80          C81   1.266       .  A
C81          O82   1.256       .  A
C81         C713   1.481       .  S
O82         Cr87   1.966       .  S
O83         Cr87   2.033       .  S
O83          C84   1.270       .  A
C84         C561   1.480       .  S
Cr85         O88   1.771       .  S
Cr86         O88   1.773       .  S
Cr87         O88   1.773       .  S
O89        Cr107   2.033   1_556  S
O89          C97   1.271       .  A
O90        Cr107   1.962   1_556  S
O90          C91   1.256       .  A
C91          O92   1.273   1_556  A
C91         C537   1.480       .  S
O92        Cr108   2.041       .  S
O93        Cr108   1.965   1_556  S
O93          C94   1.258       .  A
C94          O95   1.272       .  A
C94         C593   1.478       .  S
O95        Cr109   2.044       .  S
O96        Cr109   1.962       .  S
O96          C97   1.258       .  A
C97         C489   1.471       .  S
O98        Cr107   1.970       .  S
O98         C106   1.256       .  A
O99        Cr107   2.030       .  S
O99         C100   1.269       .  A
C100        O101   1.257       .  A
C100        C505   1.469       .  S
O101       Cr108   1.958       .  S
O102       Cr108   2.041       .  S
O102        C103   1.273       .  A
C103        O104   1.257       .  A
C103        C793   1.473       .  S
O104       Cr109   1.960   1_554  S
O105       Cr109   2.041       .  S
O105        C106   1.272   1_556  A
C106        C521   1.482       .  S
Cr107       O110   1.764       .  S
Cr108       O110   1.761       .  S
Cr109       O110   1.760   1_556  S
O111       Cr129   1.997       .  S
O111        C119   1.261       .  A
O112       Cr129   2.013       .  S
O112        C113   1.269       .  A
C113        O114   1.264       .  A
C113        C473   1.496       .  S
O114       Cr130   1.997       .  S
O115       Cr130   1.989       .  S
O115        C116   1.262       .  A
C116        O117   1.266       .  A
C116        C641   1.473       .  S
O117       Cr131   2.006       .  S
O118       Cr131   1.988       .  S
O118        C119   1.261       .  A
C119        C513   1.483       .  S
O120       Cr129   2.013       .  S
O120        C128   1.269       .  A
O121       Cr129   1.995       .  S
O121        C122   1.261       .  A
C122        O123   1.264       .  A
C122        C497   1.486       .  S
O123       Cr130   2.002       .  S
O124       Cr130   2.002       .  S
O124        C125   1.266       .  A
C125        O126   1.262       .  A
C125        C729   1.463       .  S
O126       Cr131   1.982       .  S
O127       Cr131   1.993       .  S
O127        C128   1.264       .  A
C128        C465   1.489       .  S
Cr129       O132   1.770       .  S
Cr130       O132   1.770       .  S
Cr131       O132   1.769       .  S
O133       Cr151   2.042       .  S
O133        C141   1.274       .  A
O134       Cr151   1.957       .  S
O134        C135   1.256       .  A
C135        O136   1.274       .  A
C135        C481   1.493       .  S
O136       Cr152   2.052       .  S
O137       Cr152   1.961       .  S
O137        C138   1.258       .  A
C138        O139   1.269       .  A
C138        C409   1.476       .  S
O139       Cr153   2.021       .  S
O140       Cr153   1.947       .  S
O140        C141   1.258       .  A
C141        C425   1.479       .  S
O142       Cr151   1.966       .  S
O142        C150   1.252       .  A
O143       Cr151   2.028       .  S
O143        C144   1.270       .  A
C144        O145   1.257       .  A
C144        C449   1.472       .  S
O145       Cr152   1.961       .  S
O146       Cr152   2.052       .  S
O146        C147   1.274       .  A
C147        O148   1.255       .  A
C147        C393   1.479       .  S
O148       Cr153   1.960       .  S
O149       Cr153   2.018       .  S
O149        C150   1.264       .  A
C150        C769   1.466       .  S
Cr151       O154   1.768       .  S
Cr152       O154   1.772       .  S
Cr153       O154   1.767       .  S
O155       Cr173   2.025       .  S
O155        C163   1.269       .  A
O156       Cr173   1.972       .  S
O156        C157   1.255       .  A
C157        O158   1.269       .  A
C157        C545   1.478       .  S
O158       Cr174   2.033       .  S
O159       Cr174   1.958       .  S
O159        C160   1.258       .  A
C160        O161   1.272       .  A
C160        C385   1.469       .  S
O161       Cr175   2.034       .  S
O162       Cr175   1.968       .  S
O162        C163   1.257       .  A
C163        C441   1.474   1_556  S
O164       Cr173   1.956       .  S
O164        C172   1.254       .  A
O165       Cr173   2.036       .  S
O165        C166   1.271       .  A
C166        O167   1.257       .  A
C166        C433   1.477       .  S
O167       Cr174   1.951       .  S
O168       Cr174   2.028       .  S
O168        C169   1.269       .  A
C169        O170   1.259       .  A
C169        C361   1.474       .  S
O170       Cr175   1.972       .  S
O171       Cr175   2.041       .  S
O171        C172   1.273       .  A
C172        C705   1.475       .  S
Cr173       O176   1.770       .  S
Cr174       O176   1.763       .  S
Cr175       O176   1.772       .  S
O177       Cr195   2.023       .  S
O177        C185   1.266       .  A
O178       Cr195   1.972       .  S
O178        C179   1.257       .  A
C179        O180   1.271       .  A
C179        C529   1.484       .  S
O180       Cr196   2.037       .  S
O181       Cr196   1.957       .  S
O181        C182   1.258       .  A
C182        O183   1.271       .  A
C182        C313   1.467       .  S
O183       Cr197   2.027       .  S
O184       Cr197   1.957       .  S
O184        C185   1.255       .  A
C185        C329   1.464       .  S
O186       Cr195   1.955       .  S
O186        C194   1.255       .  A
O187       Cr195   2.023       .  S
O187        C188   1.268       .  A
C188        O189   1.257       .  A
C188        C345   1.467       .  S
O189       Cr196   1.954       .  S
O190       Cr196   2.034       .  S
O190        C191   1.271       .  A
C191        O192   1.260       .  A
C191        C401   1.489       .  S
O192       Cr197   1.970       .  S
O193       Cr197   2.037       .  S
O193        C194   1.272       .  A
C194        C601   1.471       .  S
Cr195       O198   1.768       .  S
Cr196       O198   1.762       .  S
Cr197       O198   1.764       .  S
O199       Cr217   1.979       .  S
O199        C207   1.260       .  A
O200       Cr217   1.997       .  S
O200        C201   1.264       .  A
C201        O202   1.267       .  A
C201        C457   1.497       .  S
O202       Cr218   2.017       .  S
O203       Cr218   1.984       .  S
O203        C204   1.260       .  A
C204        O205   1.267       .  A
C204        C305   1.470       .  S
O205       Cr219   2.006       .  S
O206       Cr219   2.005       .  S
O206        C207   1.267       .  A
C207        C353   1.481       .  S
O208       Cr217   1.996       .  S
O208        C216   1.263       .  A
O209       Cr217   1.981       .  S
O209        C210   1.260       .  A
C210        O211   1.267       .  A
C210        C337   1.479       .  S
O211       Cr218   2.005       .  S
O212       Cr218   2.015       .  S
O212        C213   1.271       .  A
C213        O214   1.263       .  A
C213        C369   1.490       .  S
O214       Cr219   1.988       .  S
O215       Cr219   1.997       .  S
O215        C216   1.262       .  A
C216        C553   1.486       .  S
Cr217       O220   1.773       .  S
Cr218       O220   1.768       .  S
Cr219       O220   1.770       .  S
O221       Cr239   2.029       .  S
O221        C229   1.271       .  A
O222       Cr239   1.974       .  S
O222        C223   1.255       .  A
C223        O224   1.266   1_556  A
C223        C577   1.472       .  S
O224       Cr240   2.020       .  S
O225       Cr240   1.968   1_556  S
O225        C226   1.260       .  A
C226        O227   1.268       .  A
C226        C377   1.480       .  S
O227       Cr241   2.023       .  S
O228       Cr241   1.955       .  S
O228        C229   1.258       .  A
C229        C273   1.471       .  S
O230       Cr239   1.972   1_554  S
O230        C238   1.256       .  A
O231       Cr239   2.031   1_554  S
O231        C232   1.271       .  A
C232        O233   1.257       .  A
C232        C281   1.473       .  S
O233       Cr240   1.955       .  S
O234       Cr240   2.020       .  S
O234        C235   1.268       .  A
C235        O236   1.259       .  A
C235        C321   1.477       .  S
O236       Cr241   1.964   1_554  S
O237       Cr241   2.022       .  S
O237        C238   1.266   1_556  A
C238        C745   1.485       .  S
Cr239       O242   1.769       .  S
Cr240       O242   1.773   1_554  S
Cr241       O242   1.772       .  S
O243       Cr261   2.028       .  S
O243        C251   1.267       .  A
O244       Cr261   1.966       .  S
O244        C245   1.257       .  A
C245        O246   1.272       .  A
C245        C617   1.480       .  S
O246       Cr262   2.034       .  S
O247       Cr262   1.961       .  S
O247        C248   1.256       .  A
C248        O249   1.269       .  A
C248        C417   1.464       .  S
O249       Cr263   2.022       .  S
O250       Cr263   1.963       .  S
O250        C251   1.255       .  A
C251        C289   1.473       .  S
O252       Cr261   1.960       .  S
O252        C260   1.258       .  A
O253       Cr261   2.030       .  S
O253        C254   1.269       .  A
C254        O255   1.258       .  A
C254        C265   1.472       .  S
O255       Cr262   1.968       .  S
O256       Cr262   2.033       .  S
O256        C257   1.272       .  A
C257        O258   1.259       .  A
C257        C297   1.488       .  S
O258       Cr263   1.966       .  S
O259       Cr263   2.037       .  S
O259        C260   1.274       .  A
C260        C681   1.477       .  S
Cr261       O264   1.767       .  S
Cr262       O264   1.760       .  S
Cr263       O264   1.764       .  S
C265        C266   1.403       .  A
C265        C270   1.402       .  A
C266        C267   1.403       .  A
C266        H275   1.083       .  S
C267        C268   1.406       .  A
C267        H276   1.084       .  S
C268        C274   1.410       .  A
C268        C269   1.416       .  A
C269        C271   1.401       .  A
C269        C270   1.401       .  A
C270        H277   1.085       .  S
C271        C272   1.394       .  A
C271        H278   1.084       .  S
C272        C273   1.403       .  A
C272        H279   1.083       .  S
C273        C274   1.406       .  A
C274        H280   1.085       .  S
C281        C282   1.403       .  A
C281        C286   1.407       .  A
C282        C283   1.395       .  A
C282        H291   1.084       .  S
C283        C284   1.401       .  A
C283        H292   1.083       .  S
C284        C290   1.401       .  A
C284        C285   1.415       .  A
C285        C287   1.407       .  A
C285        C286   1.411       .  A
C286        H293   1.084       .  S
C287        C288   1.405       .  A
C287        H294   1.083       .  S
C288        C289   1.402       .  A
C288        H295   1.083       .  S
C289        C290   1.403       .  A
C290        H296   1.085       .  S
C297        C298   1.406       .  A
C297        C302   1.412       .  A
C298        C299   1.400       .  A
C298        H307   1.083       .  S
C299        C300   1.404       .  A
C299        H308   1.084       .  S
C300        C306   1.405       .  A
C300        C301   1.412       .  A
C301        C303   1.407       .  A
C301        C302   1.407       .  A
C302        H309   1.084       .  S
C303        C304   1.402       .  A
C303        H310   1.084       .  S
C304        C305   1.401       .  A
C304        H311   1.083       .  S
C305        C306   1.407       .  A
C306        H312   1.086       .  S
C313        C314   1.403       .  A
C313        C318   1.406       .  A
C314        C315   1.393       .  A
C314        H323   1.084       .  S
C315        C316   1.400       .  A
C315        H324   1.083       .  S
C316        C322   1.398       .  A
C316        C317   1.413       .  A
C317        C319   1.403       .  A
C317        C318   1.404       .  A
C318        H325   1.083       .  S
C319        C320   1.399       .  A
C319        H326   1.082       .  S
C320        C321   1.406       .  A
C320        H327   1.084       .  S
C321        C322   1.405       .  A
C322        H328   1.083       .  S
C329        C330   1.402   1_554  A
C329        C334   1.400   1_554  A
C330        C331   1.403       .  A
C330        H339   1.083   1_556  S
C331        C332   1.407       .  A
C331        H340   1.083       .  S
C332        C338   1.407       .  A
C332        C333   1.414       .  A
C333        C335   1.398       .  A
C333        C334   1.397       .  A
C334        H341   1.085   1_556  S
C335        C336   1.392       .  A
C335        H342   1.084       .  S
C336        C337   1.406       .  A
C336        H343   1.083       .  S
C337        C338   1.409       .  A
C338        H344   1.084       .  S
C345        C346   1.403       .  A
C345        C350   1.404       .  A
C346        C347   1.389       .  A
C346        H355   1.084       .  S
C347        C348   1.398       .  A
C347        H356   1.084       .  S
C348        C354   1.397       .  A
C348        C349   1.416       .  A
C349        C351   1.404       .  A
C349        C350   1.410       .  A
C350        H357   1.084       .  S
C351        C352   1.402       .  A
C351        H358   1.083       .  S
C352        C353   1.407       .  A
C352        H359   1.083       .  S
C353        C354   1.403       .  A
C354        H360   1.084       .  S
C361        C362   1.400       .  A
C361        C366   1.409       .  A
C362        C363   1.399       .  A
C362        H371   1.083       .  S
C363        C364   1.406       .  A
C363        H372   1.083       .  S
C364        C370   1.403       .  A
C364        C365   1.411       .  A
C365        C367   1.408       .  A
C365        C366   1.409       .  A
C366        H373   1.084       .  S
C367        C368   1.406       .  A
C367        H374   1.083       .  S
C368        C369   1.404       .  A
C368        H375   1.083       .  S
C369        C370   1.413       .  A
C370        H376   1.084       .  S
C377        C378   1.407       .  A
C377        C382   1.405       .  A
C378        C379   1.402       .  A
C378        H387   1.083       .  S
C379        C380   1.405       .  A
C379        H388   1.083       .  S
C380        C386   1.407       .  A
C380        C381   1.413       .  A
C381        C383   1.401       .  A
C381        C382   1.399       .  A
C382        H389   1.084       .  S
C383        C384   1.393       .  A
C383        H390   1.084       .  S
C384        C385   1.402       .  A
C384        H391   1.084       .  S
C385        C386   1.408       .  A
C386        H392   1.084       .  S
C393        C394   1.405       .  A
C393        C398   1.408       .  A
C394        C395   1.397       .  A
C394        H403   1.083       .  S
C395        C396   1.402       .  A
C395        H404   1.084       .  S
C396        C402   1.406       .  A
C396        C397   1.414       .  A
C397        C399   1.404       .  A
C397        C398   1.411       .  A
C398        H405   1.085       .  S
C399        C400   1.402       .  A
C399        H406   1.084       .  S
C400        C401   1.407       .  A
C400        H407   1.083       .  S
C401        C402   1.409       .  A
C402        H408   1.085       .  S
C409        C410   1.405       .  A
C409        C414   1.406       .  A
C410        C411   1.397       .  A
C410        H419   1.082       .  S
C411        C412   1.402       .  A
C411        H420   1.086       .  S
C412        C418   1.401       .  A
C412        C413   1.414       .  A
C413        C415   1.402       .  A
C413        C414   1.399       .  A
C414        H421   1.086       .  S
C415        C416   1.395       .  A
C415        H422   1.086       .  S
C416        C417   1.403       .  A
C416        H423   1.083       .  S
C417        C418   1.403       .  A
C418        H424   1.087       .  S
C425        C426   1.405       .  A
C425        C430   1.411       .  A
C426        C427   1.389       .  A
C426        H435   1.084       .  S
C427        C428   1.397       .  A
C427        H436   1.083       .  S
C428        C434   1.396       .  A
C428        C429   1.414       .  A
C429        C431   1.410       .  A
C429        C430   1.415       .  A
C430        H437   1.083       .  S
C431        C432   1.409       .  A
C431        H438   1.083       .  S
C432        C433   1.404       .  A
C432        H439   1.083       .  S
C433        C434   1.402       .  A
C434        H440   1.085       .  S
C441        C442   1.402       .  A
C441        C446   1.407       .  A
C442        C443   1.399       .  A
C442        H451   1.084       .  S
C443        C444   1.404       .  A
C443        H452   1.083       .  S
C444        C450   1.406       .  A
C444        C445   1.415       .  A
C445        C447   1.406       .  A
C445        C446   1.409       .  A
C446        H453   1.084       .  S
C447        C448   1.402       .  A
C447        H454   1.083       .  S
C448        C449   1.402       .  A
C448        H455   1.083       .  S
C449        C450   1.405       .  A
C450        H456   1.084       .  S
C457        C458   1.410       .  A
C457        C462   1.414       .  A
C458        C459   1.394       .  A
C458        H467   1.083       .  S
C459        C460   1.398   1_655  A
C459        H468   1.084   1_655  S
C460        C466   1.406       .  A
C460        C461   1.414   1_455  A
C461        C463   1.407   1_655  A
C461        C462   1.418       .  A
C462        H469   1.084       .  S
C463        C464   1.408       .  A
C463        H470   1.084   1_455  S
C464        C465   1.407       .  A
C464        H471   1.083       .  S
C465        C466   1.405       .  A
C466        H472   1.085       .  S
C473        C474   1.410       .  A
C473        C478   1.407       .  A
C474        C475   1.409       .  A
C474        H483   1.082       .  S
C475        C476   1.407       .  A
C475        H484   1.084       .  S
C476        C482   1.421       .  A
C476        C477   1.415       .  A
C477        C479   1.398       .  A
C477        C478   1.406       .  A
C478        H485   1.085       .  S
C479        C480   1.393       .  A
C479        H486   1.084       .  S
C480        C481   1.408       .  A
C480        H487   1.083       .  S
C481        C482   1.413       .  A
C482        H488   1.084       .  S
C489        C490   1.403       .  A
C489        C494   1.402       .  A
C490        C491   1.404       .  A
C490        H499   1.083       .  S
C491        C492   1.407       .  A
C491        H500   1.084       .  S
C492        C498   1.411       .  A
C492        C493   1.414       .  A
C493        C495   1.399       .  A
C493        C494   1.402       .  A
C494        H501   1.085       .  S
C495        C496   1.394       .  A
C495        H502   1.084       .  S
C496        C497   1.407       .  A
C496        H503   1.083       .  S
C497        C498   1.411       .  A
C498        H504   1.084       .  S
C505        C506   1.403       .  A
C505        C510   1.399       .  A
C506        C507   1.406       .  A
C506        H515   1.083       .  S
C507        C508   1.408       .  A
C507        H516   1.083       .  S
C508        C514   1.411       .  A
C508        C509   1.414       .  A
C509        C511   1.397       .  A
C509        C510   1.397       .  A
C510        H517   1.085       .  S
C511        C512   1.390       .  A
C511        H518   1.083       .  S
C512        C513   1.407       .  A
C512        H519   1.084       .  S
C513        C514   1.411       .  A
C514        H520   1.083       .  S
C521        C522   1.402       .  A
C521        C526   1.410       .  A
C522        C523   1.402   1_455  A
C522        H531   1.083   1_554  S
C523        C524   1.406       .  A
C523        H532   1.084   1_554  S
C524        C530   1.407       .  A
C524        C525   1.413   1_655  A
C525        C527   1.407       .  A
C525        C526   1.409       .  A
C526        H533   1.085       .  S
C527        C528   1.404   1_455  A
C527        H534   1.084       .  S
C528        C529   1.404       .  A
C528        H535   1.083       .  S
C529        C530   1.409       .  A
C530        H536   1.085       .  S
C537        C538   1.403   1_556  A
C537        C542   1.409       .  A
C538        C539   1.402   1_554  A
C538        H547   1.083       .  S
C539        C540   1.406       .  A
C539        H548   1.084   1_556  S
C540        C546   1.408       .  A
C540        C541   1.413       .  A
C541        C543   1.405       .  A
C541        C542   1.406       .  A
C542        H549   1.084       .  S
C543        C544   1.401       .  A
C543        H550   1.084       .  S
C544        C545   1.402       .  A
C544        H551   1.083       .  S
C545        C546   1.408       .  A
C546        H552   1.085       .  S
C553        C554   1.407       .  A
C553        C558   1.405       .  A
C554        C555   1.406       .  A
C554        H563   1.083       .  S
C555        C556   1.406       .  A
C555        H564   1.084       .  S
C556        C562   1.414   1_545  A
C556        C557   1.415       .  A
C557        C559   1.398   1_545  A
C557        C558   1.400       .  A
C558        H565   1.085       .  S
C559        C560   1.391       .  A
C559        H566   1.084   1_565  S
C560        C561   1.406       .  A
C560        H567   1.083       .  S
C561        C562   1.409       .  A
C562        H568   1.084       .  S
C569        C570   1.404       .  A
C569        C574   1.407       .  A
C570        C571   1.401       .  A
C570        H579   1.084       .  S
C571        C572   1.405       .  A
C571        H580   1.082       .  S
C572        C578   1.408       .  A
C572        C573   1.414       .  A
C573        C575   1.404       .  A
C573        C574   1.405       .  A
C574        H581   1.083       .  S
C575        C576   1.398       .  A
C575        H582   1.082   1_556  S
C576        C577   1.401       .  A
C576        H583   1.084   1_556  S
C577        C578   1.406       .  A
C578        H584   1.083       .  S
C585        C586   1.407       .  A
C585        C590   1.408       .  A
C586        C587   1.404       .  A
C586        H595   1.082       .  S
C587        C588   1.406       .  A
C587        H596   1.086       .  S
C588        C594   1.410       .  A
C588        C589   1.414       .  A
C589        C591   1.401       .  A
C589        C590   1.402       .  A
C590        H597   1.087       .  S
C591        C592   1.395       .  A
C591        H598   1.086       .  S
C592        C593   1.404       .  A
C592        H599   1.083       .  S
C593        C594   1.408       .  A
C594        H600   1.087       .  S
C601        C602   1.401       .  A
C601        C606   1.407       .  A
C602        C603   1.399   1_545  A
C602        H611   1.083       .  S
C603        C604   1.405       .  A
C603        H612   1.085       .  S
C604        C610   1.402       .  A
C604        C605   1.413   1_565  A
C605        C607   1.406       .  A
C605        C606   1.403       .  A
C606        H613   1.084       .  S
C607        C608   1.401   1_545  A
C607        H614   1.084       .  S
C608        C609   1.403       .  A
C608        H615   1.083       .  S
C609        C610   1.406       .  A
C610        H616   1.086       .  S
C617        C618   1.402       .  A
C617        C622   1.410       .  A
C618        C619   1.401       .  A
C618        H627   1.083       .  S
C619        C620   1.406       .  A
C619        H628   1.084       .  S
C620        C626   1.404       .  A
C620        C621   1.412       .  A
C621        C623   1.407       .  A
C621        C622   1.405       .  A
C622        H629   1.085       .  S
C623        C624   1.403       .  A
C623        H630   1.084       .  S
C624        C625   1.402       .  A
C624        H631   1.083       .  S
C625        C626   1.407       .  A
C626        H632   1.085       .  S
C633        C634   1.402       .  A
C633        C638   1.411       .  A
C634        C635   1.394       .  A
C634        H643   1.084       .  S
C635        C636   1.401       .  A
C635        H644   1.083       .  S
C636        C642   1.398       .  A
C636        C637   1.412       .  A
C637        C639   1.408       .  A
C637        C638   1.408       .  A
C638        H645   1.083       .  S
C639        C640   1.405       .  A
C639        H646   1.083       .  S
C640        C641   1.402       .  A
C640        H647   1.083       .  S
C641        C642   1.404       .  A
C642        H648   1.083       .  S
C649        C650   1.402       .  A
C649        C654   1.403       .  A
C650        C651   1.401       .  A
C650        H659   1.083       .  S
C651        C652   1.405       .  A
C651        H660   1.083       .  S
C652        C658   1.409       .  A
C652        C653   1.416       .  A
C653        C655   1.401       .  A
C653        C654   1.404       .  A
C654        H661   1.084       .  S
C655        C656   1.395       .  A
C655        H662   1.083       .  S
C656        C657   1.403       .  A
C656        H663   1.084       .  S
C657        C658   1.405       .  A
C658        H664   1.084       .  S
C665        C666   1.403       .  A
C665        C670   1.403       .  A
C666        C667   1.405       .  A
C666        H675   1.083       .  S
C667        C668   1.408       .  A
C667        H676   1.083       .  S
C668        C674   1.410       .  A
C668        C669   1.414       .  A
C669        C671   1.399       .  A
C669        C670   1.397       .  A
C670        H677   1.085       .  S
C671        C672   1.392       .  A
C671        H678   1.084       .  S
C672        C673   1.404   1_554  A
C672        H679   1.084   1_554  S
C673        C674   1.408   1_556  A
C674        H680   1.084   1_554  S
C681        C682   1.402       .  A
C681        C686   1.408       .  A
C682        C683   1.401   1_655  A
C682        H691   1.082       .  S
C683        C684   1.406       .  A
C683        H692   1.085       .  S
C684        C690   1.405       .  A
C684        C685   1.413   1_455  A
C685        C687   1.405       .  A
C685        C686   1.404       .  A
C686        H693   1.086       .  S
C687        C688   1.401   1_655  A
C687        H694   1.086       .  S
C688        C689   1.402       .  A
C688        H695   1.082       .  S
C689        C690   1.407       .  A
C690        H696   1.086       .  S
C697        C698   1.404       .  A
C697        C702   1.407       .  A
C698        C699   1.403   1_565  A
C698        H707   1.082       .  S
C699        C700   1.406       .  A
C699        H708   1.086       .  S
C700        C706   1.407       .  A
C700        C701   1.412   1_545  A
C701        C703   1.405       .  A
C701        C702   1.404       .  A
C702        H709   1.086       .  S
C703        C704   1.400   1_565  A
C703        H710   1.085       .  S
C704        C705   1.401       .  A
C704        H711   1.082       .  S
C705        C706   1.409       .  A
C706        H712   1.087       .  S
C713        C714   1.406       .  A
C713        C718   1.407       .  A
C714        C715   1.400       .  A
C714        H723   1.083       .  S
C715        C716   1.404       .  A
C715        H724   1.083       .  S
C716        C722   1.405       .  A
C716        C717   1.413       .  A
C717        C719   1.402       .  A
C717        C718   1.401       .  A
C718        H725   1.084       .  S
C719        C720   1.395       .  A
C719        H726   1.083       .  S
C720        C721   1.403       .  A
C720        H727   1.084       .  S
C721        C722   1.407       .  A
C722        H728   1.084       .  S
C729        C730   1.401       .  A
C729        C734   1.404       .  A
C730        C731   1.401       .  A
C730        H739   1.083       .  S
C731        C732   1.406       .  A
C731        H740   1.082       .  S
C732        C738   1.403       .  A
C732        C733   1.411       .  A
C733        C735   1.404       .  A
C733        C734   1.399       .  A
C734        H741   1.080       .  S
C735        C736   1.397       .  A
C735        H742   1.080       .  S
C736        C737   1.403       .  A
C736        H743   1.086       .  S
C737        C738   1.410       .  A
C738        H744   1.081       .  S
C745        C746   1.406       .  A
C745        C750   1.408       .  A
C746        C747   1.403   1_655  A
C746        H755   1.083   1_554  S
C747        C748   1.405       .  A
C747        H756   1.084   1_554  S
C748        C754   1.410       .  A
C748        C749   1.414   1_455  A
C749        C751   1.403       .  A
C749        C750   1.404       .  A
C750        H757   1.085       .  S
C751        C752   1.397   1_655  A
C751        H758   1.084       .  S
C752        C753   1.401       .  A
C752        H759   1.083       .  S
C753        C754   1.406       .  A
C754        H760   1.085       .  S
C761        C762   1.405       .  A
C761        C766   1.408       .  A
C762        C763   1.404   1_565  A
C762        H771   1.083       .  S
C763        C764   1.406       .  A
C763        H772   1.084       .  S
C764        C770   1.407       .  A
C764        C765   1.413   1_545  A
C765        C767   1.403       .  A
C765        C766   1.400       .  A
C766        H773   1.085       .  S
C767        C768   1.396   1_565  A
C767        H774   1.084       .  S
C768        C769   1.400       .  A
C768        H775   1.084       .  S
C769        C770   1.407       .  A
C770        H776   1.085       .  S
C777        C778   1.407       .  A
C777        C782   1.409       .  A
C778        C779   1.396       .  A
C778        H787   1.083       .  S
C779        C780   1.400       .  A
C779        H788   1.084       .  S
C780        C786   1.404       .  A
C780        C781   1.414       .  A
C781        C783   1.403       .  A
C781        C782   1.407       .  A
C782        H789   1.084       .  S
C783        C784   1.399       .  A
C783        H790   1.083       .  S
C784        C785   1.406       .  A
C784        H791   1.084       .  S
C785        C786   1.404       .  A
C786        H792   1.084       .  S
C793        C794   1.404       .  A
C793        C798   1.406       .  A
C794        C795   1.394       .  A
C794        H803   1.083       .  S
C795        C796   1.401       .  A
C795        H804   1.086       .  S
C796        C802   1.400       .  A
C796        C797   1.414       .  A
C797        C799   1.405       .  A
C797        C798   1.407       .  A
C798        H805   1.087       .  S
C799        C800   1.402       .  A
C799        H806   1.086       .  S
C800        C801   1.406       .  A
C800        H807   1.082       .  S
C801        C802   1.407       .  A
C802        H808   1.086       .  S
C809        C810   1.402       .  A
C809        C814   1.402       .  A
C810        C811   1.400       .  A
C810        H819   1.084       .  S
C811        C812   1.405       .  A
C811        H820   1.083       .  S
C812        C818   1.405       .  A
C812        C813   1.414       .  A
C813        C815   1.404       .  A
C813        C814   1.404       .  A
C814        H821   1.083       .  S
C815        C816   1.398       .  A
C815        H822   1.082       .  S
C816        C817   1.401   1_556  A
C816        H823   1.083       .  S
C817        C818   1.405   1_554  A
C818        H824   1.085   1_556  S
C825        C826   1.403       .  A
C825        C830   1.407       .  A
C826        C827   1.394       .  A
C826        H835   1.083       .  S
C827        C828   1.400       .  A
C827        H836   1.084       .  S
C828        C834   1.401       .  A
C828        C829   1.415       .  A
C829        C831   1.407       .  A
C829        C830   1.411       .  A
C830        H837   1.084       .  S
C831        C832   1.405       .  A
C831        H838   1.084       .  S
C832        C833   1.403       .  A
C832        H839   1.083       .  S
C833        C834   1.403       .  A
C834        H840   1.085       .  S
