geometry optimzed in LAMMPS
_audit_creation_date              2020-11-30 
_audit_creation_method            'lammps2cif' 
_symmetry_space_group_name_H-M    'P1' 
_symmetry_Int_Tables_number       1 
_symmetry_cell_setting            triclinic 
loop_ 
_symmetry_equiv_pos_as_xyz 
  x,y,z 
_cell_length_a                    34.44234522 
_cell_length_b                    34.378663650145306 
_cell_length_c                    28.728353693376615 
_cell_angle_alpha                 89.85744627049823 
_cell_angle_beta                  89.95075313463667 
_cell_angle_gamma                 120.33856251770507 
loop_ 
_atom_site_label 
_atom_site_type_symbol 
_atom_site_fract_x 
_atom_site_fract_y 
_atom_site_fract_z 
_atom_site_charge 
O1          O  0.61583742  0.73031331  0.40095703    -0.85600
O2          O  0.60150262  0.68693884  0.48546391    -0.82600
C3          C  0.59546592  0.71415260  0.50913409     0.97900
O4          O  0.56172409  0.71808501  0.50052707    -0.82700
O5          O  0.48723958  0.71170929  0.45501837    -0.85300
C6          C  0.48837292  0.73156947  0.41733370     1.02400
O7          O  0.50223557  0.72299884  0.38030666    -0.78100
O8          O  0.57117743  0.71749072  0.34047154    -0.78300
C9          C  0.60608462  0.74345637  0.36406307     1.02400
O10         O  0.58354924  0.64764191  0.35397325    -0.85600
O11         O  0.54975456  0.60473752  0.43822729    -0.82600
C12         C  0.52623957  0.59254437  0.47485287     0.97900
O13         O  0.51803608  0.61935041  0.49764955    -0.82700
O14         O  0.44627443  0.61612778  0.45409218    -0.85300
C15         C  0.42528108  0.60774858  0.41606828     1.02400
O16         O  0.44537005  0.62758063  0.37887465    -0.78100
O17         O  0.51329396  0.61925807  0.33621386    -0.78200
C18         C  0.55060824  0.62180077  0.32889757     1.02300
Cr19       Cr  0.58331613  0.66747863  0.41955883     1.93700
Cr20       Cr  0.50587522  0.66680945  0.47237393     1.93200
Cr21       Cr  0.50992937  0.67132320  0.36355203     1.39100
O22         O  0.53218394  0.66857407  0.41846770    -1.23300
O23         O  0.72202292  0.62437740  0.10537916    -0.85600
O24         O  0.68102248  0.61319649  0.02034003    -0.82600
C25         C  0.70786125  0.60710338  0.99597519     0.97900
O26         O  0.71064356  0.57240360  0.00347814    -0.82700
O27         O  0.70095585  0.49516035  0.04687547    -0.85300
C28         C  0.72145061  0.49582838  0.08376296     1.02400
O29         O  0.71415121  0.51003228  0.12132422    -0.78100
O30         O  0.70821230  0.57772224  0.16460473    -0.78300
C31         C  0.73415952  0.61385439  0.14241143     1.02400
O32         O  0.63880703  0.59110620  0.15098593    -0.85600
O33         O  0.59778226  0.56132711  0.06587052    -0.82600
C34         C  0.58620503  0.54020406  0.02794263     0.97900
O35         O  0.61257905  0.53119971  0.00546420    -0.82700
O36         O  0.60594955  0.45682556  0.04777128    -0.85300
C37         C  0.59838098  0.43394694  0.08455534     1.02400
O38         O  0.61867348  0.45270984  0.12201805    -0.78100
O39         O  0.61028633  0.52023434  0.16763696    -0.78200
C40         C  0.61284906  0.55758157  0.17557528     1.02300
Cr41       Cr  0.65991208  0.59304196  0.08562132     1.93700
Cr42       Cr  0.65804475  0.51632166  0.03049877     1.93200
Cr43       Cr  0.66230824  0.51721361  0.13933950     1.39100
O44         O  0.66011611  0.54138968  0.08521212    -1.23300
O45         O  0.70465569  0.77565212  0.77035637    -0.85600
O46         O  0.71488111  0.74364443  0.68644276    -0.82600
C47         C  0.72295534  0.77681121  0.66104915     0.97900
O48         O  0.75850147  0.81405166  0.66778422    -0.82700
O49         O  0.83556650  0.88233110  0.71136702    -0.85300
C50         C  0.83179361  0.90152725  0.74740705     1.02400
O51         O  0.81477771  0.87927187  0.78416879    -0.78100
O52         O  0.75015892  0.80610889  0.83022766    -0.78300
C53         C  0.71590511  0.79895516  0.80692227     1.02400
O54         O  0.73748438  0.72511891  0.81794141    -0.85600
O55         O  0.76498058  0.71079025  0.73304085    -0.82600
C56         C  0.78741418  0.72018398  0.69583646     0.97900
O57         O  0.79711619  0.75556879  0.67250544    -0.82700
O58         O  0.87188483  0.82341654  0.71463809    -0.85300
C59         C  0.89401874  0.84088924  0.75130061     1.02400
O60         O  0.87469070  0.84500375  0.78686153    -0.78100
O61         O  0.80877838  0.76800111  0.83263967    -0.78200
C62         C  0.77149018  0.73328716  0.84177151     1.02300
Cr63       Cr  0.73465540  0.74294970  0.75187335     1.93700
Cr64       Cr  0.81330671  0.81702768  0.69599677     1.93200
Cr65       Cr  0.81032928  0.82210664  0.80410716     1.39100
O66         O  0.78688705  0.79463579  0.75054980    -1.23300
O67         O  0.27694323  0.42962565  0.84359906    -0.85600
O68         O  0.28250856  0.50447613  0.88340472    -0.82600
C69         C  0.26918765  0.51164986  0.92165779     0.97900
O70         O  0.28450510  0.50673124  0.95984757    -0.82700
O71         O  0.27906646  0.43326037  0.00339567    -0.85300
C72         C  0.28178073  0.39867109  0.01075618     1.02400
O73         O  0.30850773  0.39274899  0.98644244    -0.78100
O74         O  0.26221142  0.38269986  0.90326997    -0.78300
C75         C  0.25036475  0.39358660  0.86600498     1.02400
O76         O  0.37658771  0.47864418  0.83622889    -0.85600
O77         O  0.37831928  0.55130947  0.88099999    -0.82600
C78         C  0.39411707  0.57119025  0.91933756     0.97900
O79         O  0.38012806  0.55027302  0.95748043    -0.82700
O80         O  0.37810064  0.47635761  0.99646537    -0.85300
C81         C  0.40285340  0.46592975  0.97257966     1.02400
O82         O  0.38838142  0.44169655  0.93658165    -0.78100
O83         O  0.34030235  0.40829809  0.85426622    -0.78200
C84         C  0.36755466  0.43897530  0.82783503     1.02300
Cr85       Cr  0.32879244  0.48890261  0.86559634     1.93700
Cr86       Cr  0.33023429  0.48931677  0.97481833     1.93200
Cr87       Cr  0.32521379  0.41119745  0.92028503     1.39100
O88         O  0.32809555  0.46420043  0.92020788    -1.23300
O89         O  0.42381057  0.28389677  0.65816969    -0.85600
O90         O  0.49872716  0.28989537  0.61853349    -0.82600
C91         C  0.50650541  0.27699439  0.58025413     0.97900
O92         O  0.50169084  0.29259268  0.54208082    -0.82700
O93         O  0.42749884  0.28616483  0.49943093    -0.85300
C94         C  0.39314106  0.28901145  0.49173786     1.02400
O95         O  0.38703537  0.31573187  0.51586512    -0.78100
O96         O  0.37771910  0.26910210  0.59820300    -0.78300
C97         C  0.38912865  0.25664525  0.63461628     1.02400
O98         O  0.47241142  0.38432793  0.66464252    -0.85600
O99         O  0.54485727  0.38588941  0.62012324    -0.82600
C100        C  0.56449597  0.40182145  0.58156438     0.97900
O101        O  0.54348658  0.38821765  0.54371135    -0.82700
O102        O  0.46944459  0.38570766  0.50541397    -0.85300
C103        C  0.45783130  0.40969797  0.52913283     1.02400
O104        O  0.43445408  0.39530254  0.56584790    -0.78100
O105        O  0.40200595  0.34624704  0.64838673    -0.78200
C106        C  0.43282873  0.37533442  0.67320215     1.02300
Cr107      Cr  0.48284527  0.33623710  0.63605698     1.93700
Cr108      Cr  0.48320435  0.33792384  0.52700470     1.93200
Cr109      Cr  0.40500261  0.33203523  0.58202681     1.39100
O110        O  0.45819411  0.33556616  0.58167291    -1.23300
O111        O  0.23863585  0.19610628  0.17401198    -0.85600
O112        O  0.17214108  0.12309657  0.21892986    -0.82600
C113        C  0.15572907  0.10142070  0.25621674     0.97900
O114        O  0.15243506  0.12105942  0.29198263    -0.82700
O115        O  0.22956917  0.18811495  0.33484613    -0.85300
C116        C  0.26504474  0.22516165  0.34199210     1.02400
O117        O  0.27305642  0.25885718  0.31758532    -0.78100
O118        O  0.28449539  0.22823001  0.23349152    -0.78300
C119        C  0.27375679  0.20495157  0.19692301     1.02400
O120        O  0.18099080  0.23604864  0.17057675    -0.85600
O121        O  0.11353408  0.15890440  0.21601310    -0.82600
C122        C  0.09440670  0.16188908  0.25246537     0.97900
O123        O  0.11695539  0.18002541  0.28868803    -0.82700
O124        O  0.19144935  0.24733016  0.33146893    -0.85300
C125        C  0.20062418  0.28229354  0.30779331     1.02400
O126        O  0.22321184  0.29193916  0.27070241    -0.78100
O127        O  0.25200949  0.27857250  0.18650088    -0.78200
C128        C  0.21825218  0.27140748  0.16295586     1.02300
Cr129      Cr  0.17821062  0.18117864  0.19917012     1.93700
Cr130      Cr  0.17511482  0.18602639  0.30734974     1.93200
Cr131      Cr  0.25393879  0.26017984  0.25213745     1.39100
O132        O  0.20165558  0.20841725  0.25288861    -1.23300
O133        O  0.43149100  0.04679218  0.05819986    -0.85600
O134        O  0.40146963  0.05588937  0.14379031    -0.82600
C135        C  0.43505682  0.06235319  0.16714809     0.97900
O136        O  0.47238248  0.09762090  0.15991323    -0.82700
O137        O  0.54022375  0.17573593  0.11817741    -0.85300
C138        C  0.55980448  0.17584948  0.08081770     1.02400
O139        O  0.53792398  0.16217688  0.04344276    -0.78100
O140        O  0.46518094  0.09418013  0.99975464    -0.78300
C141        C  0.45566796  0.05838321  0.02205790     1.02400
O142        O  0.38050807  0.07920793  0.01409570    -0.85600
O143        O  0.36849177  0.10725593  0.10104972    -0.82600
C144        C  0.37932697  0.12867040  0.13898525     0.97900
O145        O  0.41531532  0.13796058  0.16040111    -0.82700
O146        O  0.48330835  0.21348424  0.11872273    -0.85300
C147        C  0.49785226  0.23650993  0.08186750     1.02400
O148        O  0.49850582  0.21795109  0.04391281    -0.78100
O149        O  0.42335597  0.15002813  0.99693235    -0.78200
C150        C  0.38863312  0.11245022  0.98893406     1.02300
Cr151      Cr  0.39995192  0.07692209  0.07919269     1.93700
Cr152      Cr  0.47569414  0.15375383  0.13457729     1.93200
Cr153      Cr  0.47857508  0.15399474  0.02568204     1.39100
O154        O  0.45201868  0.12915262  0.07972322    -1.23300
O155        O  0.28106336  0.05928126  0.72585641    -0.85600
O156        O  0.26812946  0.01641370  0.81057434    -0.82600
C157        C  0.26355333  0.04456127  0.83417967     0.97900
O158        O  0.22948057  0.04833428  0.82696359    -0.82700
O159        O  0.15436046  0.04239546  0.78426303    -0.85300
C160        C  0.15304216  0.06133335  0.74697900     1.02400
O161        O  0.16479471  0.05219493  0.70881395    -0.78100
O162        O  0.23486977  0.04867409  0.66729571    -0.78300
C163        C  0.27140770  0.07305904  0.68933969     1.02400
O164        O  0.24790517  0.97726702  0.67963325    -0.85600
O165        O  0.21481219  0.93424407  0.76432056    -0.82600
C166        C  0.19269560  0.92270721  0.80189232     0.97900
O167        O  0.18450193  0.94960756  0.82436263    -0.82700
O168        O  0.11196203  0.94723657  0.78243270    -0.85300
C169        C  0.09030824  0.93778879  0.74466938     1.02400
O170        O  0.10983683  0.95643407  0.70679914    -0.78100
O171        O  0.17799257  0.95035024  0.66128209    -0.78200
C172        C  0.21511897  0.95242411  0.65411143     1.02300
Cr173      Cr  0.24826308  0.99684179  0.74507609     1.93700
Cr174      Cr  0.17254145  0.99724563  0.79984938     1.93200
Cr175      Cr  0.17401817  0.00144172  0.69073835     1.39100
O176        O  0.19738732  0.99852524  0.74509450    -1.23300
O177        O  0.39167085  0.95570171  0.42873657    -0.85600
O178        O  0.34793326  0.94316151  0.34437720    -0.82600
C179        C  0.37440491  0.93639123  0.32045178     0.97900
O180        O  0.37727785  0.90192999  0.32874690    -0.82700
O181        O  0.37030038  0.82753909  0.37562585    -0.85300
C182        C  0.38898679  0.82788409  0.41382018     1.02400
O183        O  0.37954151  0.84114964  0.45074720    -0.78100
O184        O  0.37571463  0.91112645  0.49029618    -0.78300
C185        C  0.40327138  0.94501796  0.46610619     1.02400
O186        O  0.30910933  0.92635687  0.47560428    -0.85600
O187        O  0.26622876  0.89355320  0.39145046    -0.82600
C188        C  0.25298999  0.86933117  0.35535234     0.97900
O189        O  0.27885409  0.85956279  0.33285880    -0.82700
O190        O  0.27472601  0.78715842  0.37640535    -0.85300
C191        C  0.26514415  0.76620578  0.41462748     1.02400
O192        O  0.28429401  0.78623125  0.45184903    -0.78100
O193        O  0.27723503  0.85546772  0.49277880    -0.78200
C194        C  0.28098951  0.89344561  0.49955345     1.02300
Cr195      Cr  0.32876843  0.92535345  0.41019278     1.93700
Cr196      Cr  0.32577088  0.84658575  0.35786769     1.93200
Cr197      Cr  0.32882928  0.85040406  0.46685838     1.39100
O198        O  0.32776429  0.87317558  0.41158153    -1.23300
O199        O  0.57448002  0.86258451  0.84385870    -0.85600
O200        O  0.50583053  0.78852630  0.88597768    -0.82600
C201        C  0.49057942  0.76715796  0.92370019     0.97900
O202        O  0.48665195  0.78668820  0.95924155    -0.82700
O203        O  0.56037730  0.85572422  0.00504961    -0.85300
C204        C  0.59537062  0.89329183  0.01223792     1.02400
O205        O  0.60243710  0.92635707  0.98736351    -0.78100
O206        O  0.61736878  0.89415082  0.90555000    -0.78300
C207        C  0.60837461  0.87124181  0.86881259     1.02400
O208        O  0.51694362  0.90199754  0.83532529    -0.85600
O209        O  0.44793599  0.82531053  0.87858274    -0.82600
C210        C  0.42688984  0.82735370  0.91378069     0.97900
O211        O  0.44708733  0.84236847  0.95196829    -0.82700
O212        O  0.51880759  0.91188678  0.99569372    -0.85300
C213        C  0.52914863  0.94718430  0.97194535     1.02400
O214        O  0.55344125  0.95716654  0.93597645    -0.78100
O215        O  0.58711347  0.94419991  0.85414214    -0.78200
C216        C  0.55453378  0.93725140  0.82868537     1.02300
Cr217      Cr  0.51296019  0.84706103  0.86542339     1.93700
Cr218      Cr  0.50581848  0.85106581  0.97361926     1.93200
Cr219      Cr  0.58574084  0.92606019  0.92067767     1.39100
O220        O  0.53395043  0.87394306  0.91992369    -1.23300
O221        O  0.75321539  0.95361292  0.33241841    -0.85600
O222        O  0.81922213  0.94620544  0.28737803    -0.82600
C223        C  0.83270688  0.93877044  0.24932066     0.97900
O224        O  0.83402419  0.96014191  0.21285953    -0.82700
O225        O  0.75821749  0.95332203  0.17026669    -0.85300
C226        C  0.72318992  0.95571320  0.16423075     1.02400
O227        O  0.71715455  0.98222527  0.18908152    -0.78100
O228        O  0.70689934  0.94043649  0.27358002    -0.78300
C229        C  0.71743027  0.92768166  0.31017119     1.02400
O230        O  0.81206550  0.05152744  0.33486373    -0.85600
O231        O  0.87798965  0.04133238  0.28894839    -0.82600
C232        C  0.89740859  0.06205316  0.25182550     0.97900
O233        O  0.87506855  0.05558698  0.21495683    -0.82700
O234        O  0.80162620  0.05179463  0.17388894    -0.85300
C235        C  0.79161483  0.07737803  0.19639301     1.02400
O236        O  0.76965131  0.06529260  0.23396318    -0.78100
O237        O  0.74121153  0.02365556  0.31941576    -0.78200
C238        C  0.77512629  0.04956180  0.34319604     1.02300
Cr239      Cr  0.81360433  0.99880574  0.30636060     1.93700
Cr240      Cr  0.81474823  0.00471823  0.19763094     1.93200
Cr241      Cr  0.73826116  0.00287556  0.25396114     1.39100
O242        O  0.78973013  0.00227912  0.25260036    -1.23300
O243        O  0.60926844  0.08929391  0.50534964    -0.85600
O244        O  0.60574660  0.15919815  0.54725562    -0.82600
C245        C  0.59869116  0.17314047  0.58527389     0.97900
O246        O  0.61927935  0.17339005  0.62192484    -0.82700
O247        O  0.61321827  0.09818078  0.66672153    -0.85300
C248        C  0.61630565  0.06362026  0.67399836     1.02400
O249        O  0.64245480  0.05726146  0.64896006    -0.78100
O250        O  0.59628320  0.04460777  0.56635820    -0.78300
C251        C  0.58328460  0.05452777  0.52945943     1.02400
O252        O  0.70809042  0.14620258  0.49959207    -0.85600
O253        O  0.70073553  0.21493145  0.54302653    -0.82600
C254        C  0.72132655  0.23532394  0.57963395     0.97900
O255        O  0.71436627  0.21407451  0.61754181    -0.82700
O256        O  0.71140116  0.14094985  0.65948136    -0.85300
C257        C  0.73684631  0.13139638  0.63593062     1.02400
O258        O  0.72340316  0.10818660  0.59917902    -0.78100
O259        O  0.67659598  0.07542290  0.51645204    -0.78200
C260        C  0.70503866  0.10844055  0.49301618     1.02300
Cr261      Cr  0.65652710  0.15041851  0.52818778     1.93700
Cr262      Cr  0.66392011  0.15407284  0.63694369     1.93200
Cr263      Cr  0.65973855  0.07580883  0.58273663     1.39100
O264        O  0.65999298  0.12767047  0.58268888    -1.23300
O265        O  0.10295511  0.38116624  0.39696513    -0.85600
O266        O  0.07123706  0.39347354  0.48025545    -0.82600
C267        C  0.10435846  0.40082396  0.50499789     0.97900
O268        O  0.14160341  0.43645974  0.49829747    -0.82700
O269        O  0.20922703  0.51335507  0.45368533    -0.85300
C270        C  0.22936929  0.50971233  0.41853072     1.02400
O271        O  0.20823333  0.49280072  0.38121845    -0.78100
O272        O  0.13498772  0.42604995  0.33649053    -0.78300
C273        C  0.12607863  0.39122489  0.36016149     1.02400
O274        O  0.05343420  0.41355014  0.34849946    -0.85600
O275        O  0.03928682  0.44351421  0.43180029    -0.82600
C276        C  0.04874039  0.46640477  0.46861583     0.97900
O277        O  0.08348808  0.47559831  0.49235873    -0.82700
O278        O  0.15044642  0.54891413  0.44846300    -0.85300
C279        C  0.16764540  0.57065613  0.41141566     1.02400
O280        O  0.17238857  0.55136441  0.37622911    -0.78100
O281        O  0.09626514  0.48443436  0.33140985    -0.78200
C282        C  0.06088918  0.44717280  0.32432128     1.02300
Cr283      Cr  0.07091328  0.41210477  0.41439024     1.93700
Cr284      Cr  0.14449437  0.49107893  0.46883858     1.93200
Cr285      Cr  0.15042780  0.48682462  0.36069588     1.39100
O286        O  0.12269453  0.46407079  0.41465938    -1.23300
O287        O  0.94596790  0.39985047  0.07345010    -0.85600
O288        O  0.93259333  0.35177810  0.15598820    -0.82600
C289        C  0.92769779  0.37970618  0.17914121     0.97900
O290        O  0.89425527  0.38398930  0.17064855    -0.82700
O291        O  0.82361749  0.38266754  0.12444595    -0.85300
C292        C  0.81673566  0.39500664  0.08522230     1.02400
O293        O  0.82384901  0.38010796  0.04798718    -0.78100
O294        O  0.90107404  0.38663683  0.01227388    -0.78300
C295        C  0.93592828  0.41272205  0.03643629     1.02400
O296        O  0.92151186  0.32255458  0.02339214    -0.85600
O297        O  0.88412586  0.27330819  0.10598195    -0.82600
C298        C  0.85899566  0.25945789  0.14164038     0.97900
O299        O  0.84670345  0.28384928  0.16364873    -0.82700
O300        O  0.77609892  0.28713737  0.12266624    -0.85300
C301        C  0.75649011  0.27165263  0.08432821     1.02400
O302        O  0.77814159  0.28458089  0.04629958    -0.78100
O303        O  0.85173628  0.28630689  0.00467370    -0.78200
C304        C  0.89124171  0.29463811  0.99722044     1.02300
Cr305      Cr  0.91609196  0.33657045  0.08952573     1.93700
Cr306      Cr  0.83771571  0.33447669  0.14115439     1.93200
Cr307      Cr  0.84084834  0.33434026  0.03224710     1.39100
O308        O  0.86373771  0.33501029  0.08764599    -1.23300
O309        O  0.05887805  0.28627154  0.76493047    -0.85600
O310        O  0.01316712  0.27731244  0.68094688    -0.82600
C311        C  0.04044852  0.27225377  0.65671562     0.97900
O312        O  0.04418192  0.23826958  0.66418510    -0.82700
O313        O  0.04198143  0.16637358  0.70866454    -0.85300
C314        C  0.05203685  0.15638622  0.74754382     1.02400
O315        O  0.03489510  0.16054931  0.78472188    -0.78100
O316        O  0.04396405  0.23781846  0.82346929    -0.78300
C317        C  0.07068310  0.27420336  0.80154848     1.02400
O318        O  0.98104507  0.26183366  0.81287434    -0.85600
O319        O  0.93293274  0.22684475  0.72896270    -0.82600
C320        C  0.91953386  0.20255787  0.69268502     0.97900
O321        O  0.94446202  0.19135195  0.67006602    -0.82700
O322        O  0.94636244  0.11857772  0.70891781    -0.85300
C323        C  0.92840006  0.09808247  0.74642156     1.02400
O324        O  0.93963303  0.11860314  0.78502643    -0.78100
O325        O  0.94428713  0.19163295  0.83078967    -0.78200
C326        C  0.95406887  0.23139521  0.83962610     1.02300
Cr327      Cr  0.99606557  0.25792845  0.74682777     1.93700
Cr328      Cr  0.99417106  0.18100295  0.69241126     1.93200
Cr329      Cr  0.99082179  0.17951460  0.80145219     1.39100
O330        O  0.99364907  0.20512069  0.74689905    -1.23300
O331        O  0.08872632  0.61762740  0.99269705    -0.85600
O332        O  0.16634381  0.62548890  0.95659326    -0.82600
C333        C  0.16981392  0.60720188  0.92001252     0.97900
O334        O  0.16043245  0.61697816  0.88071877    -0.82700
O335        O  0.09083560  0.61588466  0.83374122    -0.85300
C336        C  0.05776256  0.62066966  0.82489856     1.02400
O337        O  0.05308030  0.64861941  0.84824500    -0.78100
O338        O  0.04211126  0.60269380  0.93249405    -0.78300
C339        C  0.05366621  0.59072651  0.96924697     1.02400
O340        O  0.13591401  0.71768569  0.99879288    -0.85600
O341        O  0.20940811  0.72095331  0.95517960    -0.82600
C342        C  0.23043384  0.73113720  0.91677607     0.97900
O343        O  0.21029334  0.71258561  0.87938869    -0.82700
O344        O  0.13923397  0.71563735  0.83836166    -0.85300
C345        C  0.12819145  0.74118200  0.85990701     1.02400
O346        O  0.10309971  0.72819546  0.89573378    -0.78100
O347        O  0.06639182  0.68099434  0.97958615    -0.78200
C348        C  0.09614413  0.70836418  0.00643232     1.02300
Cr349      Cr  0.14783571  0.67032126  0.97125368     1.93700
Cr350      Cr  0.14793956  0.66549886  0.86234013     1.93200
Cr351      Cr  0.07113712  0.66545034  0.91419215     1.39100
O352        O  0.12342871  0.66726961  0.91597096    -1.23300
O353        O  0.94288785  0.76113572  0.17698217    -0.85600
O354        O  0.94449978  0.83430826  0.21578989    -0.82600
C355        C  0.93236531  0.84333684  0.25386264     0.97900
O356        O  0.94917352  0.84060722  0.29202416    -0.82700
O357        O  0.94372730  0.76721140  0.33676260    -0.85300
C358        C  0.94698690  0.73300374  0.34484435     1.02400
O359        O  0.97398228  0.72714342  0.32090295    -0.78100
O360        O  0.92790845  0.71558109  0.23785969    -0.78300
C361        C  0.91598100  0.72622729  0.20058605     1.02400
O362        O  0.04250784  0.81286078  0.17137481    -0.85600
O363        O  0.04012900  0.88443510  0.21384085    -0.82600
C364        C  0.05670014  0.90489976  0.25166254     0.97900
O365        O  0.04468352  0.88414684  0.29009006    -0.82700
O366        O  0.04276866  0.81069251  0.33071340    -0.85300
C367        C  0.06797425  0.80047958  0.30743213     1.02400
O368        O  0.05394940  0.77606331  0.27145234    -0.78100
O369        O  0.00664699  0.74217167  0.18860670    -0.78200
C370        C  0.03457203  0.77350720  0.16310349     1.02300
Cr371      Cr  0.99283861  0.82119116  0.19897034     1.93700
Cr372      Cr  0.99486021  0.82326299  0.30802395     1.93200
Cr373      Cr  0.99090031  0.74487931  0.25470598     1.39100
O374        O  0.99293063  0.79753698  0.25392093    -1.23300
O375        O  0.90276293  0.52829022  0.50505230    -0.85600
O376        O  0.83515638  0.45451857  0.54869691    -0.82600
C377        C  0.81895711  0.43230230  0.58573862     0.97900
O378        O  0.81642225  0.45152180  0.62232944    -0.82700
O379        O  0.89338860  0.51850007  0.66713927    -0.85300
C380        C  0.92863020  0.55574241  0.67470026     1.02400
O381        O  0.93690169  0.58930716  0.64988693    -0.78100
O382        O  0.94903441  0.56024418  0.56441249    -0.78300
C383        C  0.93874632  0.53825249  0.52690145     1.02400
O384        O  0.84562972  0.56864710  0.50289615    -0.85600
O385        O  0.77814640  0.49246410  0.54690861    -0.82600
C386        C  0.75947857  0.49621848  0.58327715     0.97900
O387        O  0.78163351  0.51156984  0.62019168    -0.82700
O388        O  0.85505221  0.57740643  0.66390954    -0.85300
C389        C  0.86405500  0.61265406  0.64079032     1.02400
O390        O  0.88681644  0.62262434  0.60380841    -0.78100
O391        O  0.91649920  0.61108513  0.51911698    -0.78200
C392        C  0.88294219  0.60367618  0.49509681     1.02300
Cr393      Cr  0.84241278  0.51343473  0.53040486     1.93700
Cr394      Cr  0.83913484  0.51651885  0.63888102     1.93200
Cr395      Cr  0.91801462  0.59148214  0.58444190     1.39100
O396        O  0.86594467  0.53959464  0.58460085    -1.23300
C397        C  0.88942451  0.63498407  0.45597275    -0.00400
C398        C  0.90599487  0.68089813  0.46528563    -0.12300
C399        C  0.92117675  0.71317652  0.42915995     0.01800
C400        C  0.92141261  0.69991486  0.38270556    -0.00500
C401        C  0.90273806  0.65367024  0.37330006    -0.12200
C402        C  0.88638121  0.62133252  0.40921443     0.01700
H403        H  0.90858683  0.69178562  0.50107387     0.14700
H404        H  0.90260360  0.64292013  0.33780034     0.14700
C405        C  0.86993755  0.57475037  0.39754174     0.36400
C406        C  0.93943190  0.75998560  0.44104303     0.36300
N407        N  0.85676323  0.53739979  0.38824885    -0.44000
N408        N  0.95394535  0.79751671  0.45052776    -0.44000
C409        C  0.05288610  0.76102907  0.12186208    -0.00400
C410        C  0.02319831  0.72035171  0.09970616    -0.12300
C411        C  0.03708689  0.70281353  0.06370928     0.01800
C412        C  0.08215487  0.72653839  0.04703050    -0.00500
C413        C  0.11245769  0.76740459  0.06942811    -0.12200
C414        C  0.09825065  0.78454536  0.10668246     0.01700
H415        H  0.98846129  0.70126759  0.11133452     0.14700
H416        H  0.14724173  0.78585939  0.05807209     0.14700
C417        C  0.13118775  0.82455111  0.13057895     0.36400
C418        C  0.00411387  0.65879357  0.04652666     0.36300
N419        N  0.15766318  0.85636232  0.15013143    -0.44000
N420        N  0.97767967  0.62345084  0.03308343    -0.44000
C421        C  0.95959224  0.56238568  0.71414123    -0.00400
C422        C  0.00546348  0.57894180  0.70478411    -0.12300
C423        C  0.03771922  0.59485390  0.74072538     0.01800
C424        C  0.02452667  0.59538471  0.78718090    -0.00500
C425        C  0.97837909  0.57712902  0.79668341    -0.12200
C426        C  0.94606769  0.56051014  0.76090322     0.01700
H427        H  0.01642215  0.58132248  0.66894899     0.14700
H428        H  0.96770671  0.57758781  0.83211875     0.14700
C429        C  0.89980782  0.54547154  0.77262451     0.36400
C430        C  0.08453718  0.61417950  0.72847675     0.36300
N431        N  0.86279788  0.53365348  0.78208995    -0.44000
N432        N  0.12210224  0.62982528  0.71861970    -0.44000
C433        C  0.90463657  0.27538634  0.95717814    -0.00400
C434        C  0.94959157  0.30013000  0.94193300    -0.12300
C435        C  0.96581822  0.28559180  0.90515312     0.01800
C436        C  0.93721142  0.24458761  0.88178229    -0.00500
C437        C  0.89231772  0.21877973  0.89754703    -0.12200
C438        C  0.87584783  0.23396622  0.93453065     0.01700
H439        H  0.97261631  0.33187335  0.95856724     0.14700
H440        H  0.86974693  0.18732598  0.88023911     0.14700
C441        C  0.82965315  0.20614074  0.94898931     0.36400
C442        C  0.01267594  0.31387721  0.89267115     0.36300
N443        N  0.79258553  0.18381711  0.96065085    -0.44000
N444        N  0.05014954  0.33700067  0.88284194    -0.44000
C445        C  0.96648359  0.45838626  0.02006349    -0.00400
C446        C  0.97361199  0.46556427  0.97214163    -0.12300
C447        C  0.00286724  0.50840028  0.95480054     0.01800
C448        C  0.02478701  0.54488260  0.98594668    -0.00500
C449        C  0.01827135  0.53763338  0.03390351    -0.12200
C450        C  0.98920990  0.49474064  0.05129107     0.01700
H451        H  0.95694498  0.43746460  0.94824022     0.14700
H452        H  0.03496688  0.56576634  0.05776832     0.14700
C453        C  0.98187016  0.48984008  0.10099076     0.36400
C454        C  0.01111068  0.51331959  0.90521974     0.36300
N455        N  0.97631115  0.48680267  0.14085996    -0.44000
N456        N  0.01756822  0.51661977  0.86548716    -0.44000
C457        C  0.01983939  0.48388731  0.48354783    -0.00400
C458        C  0.04030284  0.52667691  0.50413900    -0.12300
C459        C  0.01492306  0.54625518  0.51657746     0.01800
C460        C  0.96804979  0.52232772  0.50907332    -0.00500
C461        C  0.94775894  0.47999596  0.48758548    -0.12200
C462        C  0.97318972  0.46064113  0.47465995     0.01700
H463        H  0.07642979  0.54537792  0.50950098     0.14700
H464        H  0.91164199  0.46128193  0.48217524     0.14700
C465        C  0.95024360  0.41637992  0.45385140     0.36400
C466        C  0.03801958  0.59142946  0.53525371     0.36300
N467        N  0.93187487  0.38097620  0.43708000    -0.44000
N468        N  0.05656097  0.62770857  0.54993303    -0.44000
C469        C  0.06553438  0.30537731  0.61865416    -0.00400
C470        C  0.06004446  0.29040474  0.57242104    -0.12300
C471        C  0.07505337  0.32118709  0.53495587     0.01800
C472        C  0.09717109  0.36821244  0.54321996    -0.00500
C473        C  0.10568392  0.38324181  0.58950275    -0.12200
C474        C  0.08965156  0.35242130  0.62697190     0.01700
H475        H  0.04153579  0.25450879  0.56542474     0.14700
H476        H  0.12236860  0.41910689  0.59648261     0.14700
C477        C  0.09743817  0.36995585  0.67377279     0.36400
C478        C  0.06631025  0.30356920  0.48816991     0.36300
N479        N  0.10379458  0.38420580  0.71121032    -0.44000
N480        N  0.05922989  0.28922743  0.45075879    -0.44000
C481        C  0.02817812  0.44046995  0.28684606    -0.00400
C482        C  0.98211097  0.41874307  0.29824529    -0.12300
C483        C  0.94876765  0.40202445  0.26353202     0.01800
C484        C  0.96113875  0.40567831  0.21622314    -0.00500
C485        C  0.00725528  0.42917144  0.20474028    -0.12200
C486        C  0.04063729  0.44728207  0.23942028     0.01700
H487        H  0.97207681  0.41301376  0.33456725     0.14700
H488        H  0.01724454  0.43206048  0.16849976     0.14700
C489        C  0.08732131  0.46974195  0.22552993     0.36400
C490        C  0.90211346  0.37782270  0.27749291     0.36300
N491        N  0.12474296  0.48792028  0.21435137    -0.44000
N492        N  0.86469949  0.35836040  0.28869767    -0.44000
C493        C  0.78315110  0.14832616  0.65116585    -0.00400
C494        C  0.81712907  0.16453340  0.61714012    -0.12300
C495        C  0.86218170  0.18368243  0.62984091     0.01800
C496        C  0.87336665  0.18581727  0.67724173    -0.00500
C497        C  0.83943882  0.16974407  0.71123671    -0.12200
C498        C  0.79447780  0.15111082  0.69862493     0.01700
H499        H  0.80855394  0.16349122  0.58064538     0.14700
H500        H  0.84803478  0.17095279  0.74774868     0.14700
C501        C  0.76065549  0.13381299  0.73484588     0.36400
C502        C  0.89634018  0.20321698  0.59405758     0.36300
N503        N  0.73348284  0.11993441  0.76376968    -0.44000
N504        N  0.92383578  0.21934747  0.56557708    -0.44000
C505        C  0.75218401  0.28573876  0.57932630    -0.00400
C506        C  0.76925028  0.30833772  0.62197695    -0.12300
C507        C  0.79267708  0.35571231  0.62491451     0.01800
C508        C  0.79980076  0.38217659  0.58458103    -0.00500
C509        C  0.78527953  0.35976232  0.54159449    -0.12200
C510        C  0.76181842  0.31247810  0.53855168     0.01700
H511        H  0.76320228  0.28897590  0.65373285     0.14700
H512        H  0.79072513  0.37924624  0.51002048     0.14700
C513        C  0.74734985  0.29283403  0.49294935     0.36400
C514        C  0.80933392  0.37610612  0.66980830     0.36300
N515        N  0.73582329  0.27729121  0.45631806    -0.44000
N516        N  0.82286945  0.39239576  0.70578977    -0.44000
C517        C  0.80721333  0.12272252  0.17942285    -0.00400
C518        C  0.85264429  0.14913249  0.16724989    -0.12300
C519        C  0.87078655  0.19447532  0.15630747     0.01800
C520        C  0.84285600  0.21349115  0.15721983    -0.00500
C521        C  0.79731452  0.18693044  0.16908608    -0.12200
C522        C  0.77919944  0.14156306  0.18000517     0.01700
H523        H  0.87430848  0.13468408  0.16789040     0.14700
H524        H  0.77563980  0.20134715  0.16855594     0.14700
C525        C  0.73170369  0.11477889  0.19033981     0.36400
C526        C  0.91834528  0.22103566  0.14614415     0.36300
N527        N  0.69367380  0.09325638  0.19862132    -0.44000
N528        N  0.95645178  0.24230858  0.13812780    -0.44000
C529        C  0.76882546  0.07353969  0.38313193    -0.00400
C530        C  0.76297327  0.05460619  0.42762977    -0.12300
C531        C  0.74467996  0.06741055  0.46423641     0.01800
C532        C  0.73222684  0.10060975  0.45719717    -0.00500
C533        C  0.74136315  0.12206286  0.41348338    -0.12200
C534        C  0.75881673  0.10835310  0.37651454     0.01700
H535        H  0.76996828  0.02750070  0.43307306     0.14700
H536        H  0.73224936  0.14755147  0.40725337     0.14700
C537        C  0.76482711  0.12946293  0.33156904     0.36400
C538        C  0.73751485  0.04446050  0.50834766     0.36300
N539        N  0.76985918  0.14671040  0.29566714    -0.44000
N540        N  0.73148393  0.02580102  0.54355466    -0.44000
C541        C  0.85045449  0.90674909  0.24855513    -0.00400
C542        C  0.85638980  0.88979899  0.29104647    -0.12300
C543        C  0.88040791  0.86674714  0.29356852     0.01800
C544        C  0.89967422  0.86017398  0.25287974    -0.00500
C545        C  0.89028161  0.87355610  0.20995649    -0.12200
C546        C  0.86605591  0.89633616  0.20737014     0.01700
H547        H  0.84376284  0.89607296  0.32304447     0.14700
H548        H  0.90349970  0.86789658  0.17803141     0.14700
C549        C  0.85892028  0.90936879  0.16177327     0.36400
C550        C  0.88501838  0.85085787  0.33865690     0.36300
N551        N  0.85326902  0.91969148  0.12514001    -0.44000
N552        N  0.88855058  0.83805481  0.37481787    -0.44000
C553        C  0.69022423  0.93069918  0.12616683    -0.00400
C554        C  0.70538416  0.93745819  0.07988490    -0.12300
C555        C  0.67490306  0.92332883  0.04241291     0.01800
C556        C  0.62785819  0.90059081  0.05058032    -0.00500
C557        C  0.61260897  0.89071934  0.09684584    -0.12200
C558        C  0.64317335  0.90602275  0.13439609     0.01700
H559        H  0.74124566  0.95642457  0.07290288     0.14700
H560        H  0.57675250  0.87345346  0.10382365     0.14700
C561        C  0.62531272  0.89680076  0.18117075     0.36400
C562        C  0.69298028  0.93365552  0.99575287     0.36300
N563        N  0.61064505  0.88919044  0.21852508    -0.44000
N564        N  0.70782083  0.94201370  0.95848599    -0.44000
C565        C  0.59226212  0.03142652  0.71317499    -0.00400
C566        C  0.60113772  0.04720425  0.75916318    -0.12300
C567        C  0.58721838  0.01707608  0.79719363     0.01800
C568        C  0.56254583  0.96983283  0.78995022    -0.00500
C569        C  0.55107961  0.95411482  0.74406137    -0.12200
C570        C  0.56629897  0.98424854  0.70592527     0.01700
H571        H  0.62142049  0.08315718  0.76536114     0.14700
H572        H  0.53255025  0.91809797  0.73775224     0.14700
C573        C  0.55577361  0.96579528  0.65951055     0.36400
C574        C  0.59974295  0.03560337  0.84343526     0.36300
N575        N  0.54720151  0.95077217  0.62240389    -0.44000
N576        N  0.60996426  0.05061533  0.88042335    -0.44000
C577        C  0.28055397  0.76298353  0.91496195    -0.00400
C578        C  0.30375258  0.76627594  0.87330498    -0.12300
C579        C  0.35098316  0.78946014  0.87101488     0.01800
C580        C  0.37694499  0.80945673  0.91151319    -0.00500
C581        C  0.35384442  0.80911168  0.95225866    -0.12200
C582        C  0.30652595  0.78681362  0.95418078     0.01700
H583        H  0.28498692  0.74925845  0.84231389     0.14700
H584        H  0.37272953  0.82541790  0.98344824     0.14700
C585        C  0.28589711  0.78906065  0.99707200     0.36400
C586        C  0.37135563  0.79136635  0.82646401     0.36300
N587        N  0.26950194  0.79125238  0.03140005    -0.44000
N588        N  0.38744112  0.79304951  0.79057276    -0.44000
C589        C  0.20647016  0.85230019  0.34014557    -0.00400
C590        C  0.18366136  0.87307297  0.35840163    -0.12300
C591        C  0.13818401  0.85590725  0.35005834     0.01800
C592        C  0.11465929  0.81742149  0.32178478    -0.00500
C593        C  0.13748940  0.79676231  0.30310895    -0.12200
C594        C  0.18293728  0.81365242  0.31205670     0.01700
H595        H  0.20135453  0.90287956  0.37969939     0.14700
H596        H  0.11978406  0.76711146  0.28137849     0.14700
C597        C  0.20365758  0.78972280  0.29278390     0.36400
C598        C  0.11734957  0.87921277  0.37066425     0.36300
N599        N  0.21991114  0.77034182  0.27705467    -0.44000
N600        N  0.10091267  0.89790279  0.38763133    -0.44000
C601        C  0.53726976  0.02521468  0.51408338    -0.00400
C602        C  0.52958902  0.01216667  0.46738862    -0.12300
C603        C  0.48587468  0.98525119  0.45118144     0.01800
C604        C  0.44939938  0.97239161  0.48195194    -0.00500
C605        C  0.45710277  0.98477382  0.52880225    -0.12200
C606        C  0.50081444  0.01116290  0.54516069     0.01700
H607        H  0.55780173  0.02238061  0.44385193     0.14700
H608        H  0.42890755  0.97449857  0.55238019     0.14700
C609        C  0.50714417  0.02511049  0.59328935     0.36400
C610        C  0.47952623  0.96914565  0.40380093     0.36300
N611        N  0.51190907  0.03622204  0.63184660    -0.44000
N612        N  0.47478911  0.95593575  0.36601507    -0.44000
C613        C  0.18540848  0.62036540  0.41072446    -0.00400
C614        C  0.19279096  0.64313537  0.45341114    -0.12300
C615        C  0.21631297  0.69038775  0.45571455     0.01800
C616        C  0.23307079  0.71637685  0.41451729    -0.00500
C617        C  0.22235901  0.69351720  0.37159986    -0.12200
C618        C  0.19900138  0.64631609  0.36930396     0.01700
H619        H  0.18190987  0.62404382  0.48563454     0.14700
H620        H  0.23402963  0.71250291  0.33939513     0.14700
C621        C  0.19035237  0.62583509  0.32379728     0.36400
C622        C  0.22333732  0.71086055  0.50107789     0.36300
N623        N  0.18352864  0.60961125  0.28724812    -0.44000
N624        N  0.22886161  0.72705353  0.53753988    -0.44000
C625        C  0.22258052  0.92887917  0.61428645    -0.00400
C626        C  0.21893813  0.94113462  0.56854315    -0.12300
C627        C  0.23601301  0.92843597  0.53051275     0.01800
C628        C  0.25565563  0.90120579  0.53738509    -0.00500
C629        C  0.25632972  0.88631686  0.58274040    -0.12200
C630        C  0.24113244  0.90070721  0.62094767     0.01700
H631        H  0.20562883  0.96338869  0.56277982     0.14700
H632        H  0.27168936  0.86591581  0.58882607     0.14700
C633        C  0.24686396  0.88749243  0.66687234     0.36400
C634        C  0.23454288  0.94547211  0.48501545     0.36300
N635        N  0.25214967  0.87659872  0.70330491    -0.44000
N636        N  0.23354935  0.95986203  0.44888066    -0.44000
C637        C  0.14463313  0.78709142  0.84326028    -0.00400
C638        C  0.12040762  0.80822195  0.85591484    -0.12300
C639        C  0.13600657  0.85295033  0.84427452     0.01800
C640        C  0.17679419  0.87728597  0.81955645    -0.00500
C641        C  0.20144107  0.85648887  0.80777012    -0.12200
C642        C  0.18551257  0.81154461  0.81858690     0.01700
H643        H  0.08893686  0.78967771  0.87488666     0.14700
H644        H  0.23347732  0.87557954  0.79008685     0.14700
C645        C  0.21236202  0.79219176  0.80433795     0.36400
C646        C  0.10884261  0.87221131  0.85751708     0.36300
N647        N  0.23392680  0.77698652  0.79221053    -0.44000
N648        N  0.08682396  0.88716666  0.86878433    -0.44000
C649        C  0.13395766  0.09226079  0.74812335    -0.00400
C650        C  0.11112989  0.09281318  0.78851805    -0.12300
C651        C  0.08605625  0.11470333  0.78978373     0.01800
C652        C  0.08304975  0.13740296  0.74972943    -0.00500
C653        C  0.10807229  0.13917094  0.71010629    -0.12200
C654        C  0.13349256  0.11737399  0.70904659     0.01700
H655        H  0.11109524  0.07425703  0.81912204     0.14700
H656        H  0.10723310  0.15705300  0.67933067     0.14700
C657        C  0.15860773  0.12147219  0.66723578     0.36400
C658        C  0.06203067  0.11085206  0.83239961     0.36300
N659        N  0.17892064  0.12494964  0.63380694    -0.44000
N660        N  0.04284477  0.10756648  0.86663663    -0.44000
C661        C  0.51205950  0.97682289  0.98572848    -0.00400
C662        C  0.50565078  0.00179607  0.95082086    -0.12300
C663        C  0.48702547  0.02853987  0.96128642     0.01800
C664        C  0.47425895  0.03022080  0.00751053    -0.00500
C665        C  0.48136057  0.00578282  0.04240542    -0.12200
C666        C  0.50007905  0.97927464  0.03205094     0.01700
H667        H  0.51431895  0.99969939  0.91495802     0.14700
H668        H  0.47316487  0.00812984  0.07837718     0.14700
C669        C  0.50784519  0.95634590  0.06997285     0.36400
C670        C  0.48046968  0.05274047  0.92381839     0.36300
N671        N  0.51407397  0.93808174  0.10042985    -0.44000
N672        N  0.47536996  0.07217062  0.89373833    -0.44000
C673        C  0.35832943  0.10493418  0.94837594    -0.00400
C674        C  0.37384701  0.10474755  0.90319260    -0.12300
C675        C  0.34389313  0.08734863  0.86526308     0.01800
C676        C  0.29716492  0.07033174  0.87170363    -0.00500
C677        C  0.28218563  0.07337595  0.91633082    -0.12200
C678        C  0.31203187  0.08970023  0.95444042     0.01700
H679        H  0.40911582  0.11574323  0.89794007     0.14700
H680        H  0.24660251  0.06046067  0.92209431     0.14700
C681        C  0.29405404  0.08939087  0.99982920     0.36400
C682        C  0.36193978  0.08648783  0.82013013     0.36300
N683        N  0.27929739  0.08920994  0.03604710    -0.44000
N684        N  0.37643333  0.08575382  0.78399308    -0.44000
C685        C  0.39935571  0.96839121  0.28163941    -0.00400
C686        C  0.39227103  0.95258009  0.23562985    -0.12300
C687        C  0.40583806  0.98273905  0.19764044     0.01800
C688        C  0.42856437  0.02989575  0.20520278    -0.00500
C689        C  0.43865647  0.04566421  0.25113186    -0.12200
C690        C  0.42356438  0.01553836  0.28908984     0.01700
H691        H  0.37322213  0.91657103  0.22933297     0.14700
H692        H  0.45552968  0.08163922  0.25754822     0.14700
C693        C  0.43153406  0.03388689  0.33555592     0.36400
C694        C  0.39447802  0.96435930  0.15124056     0.36300
N695        N  0.43772162  0.04863126  0.37276940    -0.44000
N696        N  0.38507888  0.94933522  0.11418158    -0.44000
C697        C  0.60985069  0.19430852  0.08054425    -0.00400
C698        C  0.63269929  0.20132578  0.12304637    -0.12300
C699        C  0.67998274  0.22356865  0.12513609     0.01800
C700        C  0.70625406  0.24020677  0.08387079    -0.00500
C701        C  0.68325915  0.23083708  0.04119652    -0.12200
C702        C  0.63601892  0.20842300  0.03909439     0.01700
H703        H  0.61356101  0.19021500  0.15519509     0.14700
H704        H  0.70227908  0.24289028  0.00906283     0.14700
C705        C  0.61592321  0.20291938  0.99370138     0.36400
C706        C  0.70015296  0.22928767  0.17052979     0.36300
N707        N  0.59993966  0.19861830  0.95727394    -0.44000
N708        N  0.71610745  0.23376255  0.20700181    -0.44000
C709        C  0.35125961  0.14558289  0.15753818    -0.00400
C710        C  0.37307533  0.18973965  0.17462031    -0.12300
C711        C  0.34861739  0.21018925  0.18715587     0.01800
C712        C  0.30147628  0.18632580  0.18175587    -0.00500
C713        C  0.27952983  0.14165157  0.16592867    -0.12200
C714        C  0.30400396  0.12080298  0.15463405     0.01700
H715        H  0.40950060  0.20883830  0.17689115     0.14700
H716        H  0.24308781  0.12249505  0.16395375     0.14700
C717        C  0.27985658  0.07348865  0.14294769     0.36400
C718        C  0.37293808  0.25592425  0.20420806     0.36300
N719        N  0.26027463  0.03546562  0.13408978    -0.44000
N720        N  0.39263530  0.29246923  0.21807520    -0.44000
C721        C  0.14414629  0.36282005  0.34573666    -0.00400
C722        C  0.15925128  0.34505972  0.38069563    -0.12300
C723        C  0.17917591  0.31977858  0.36931829     0.01800
C724        C  0.18325918  0.31131953  0.32222780    -0.00500
C725        C  0.16832277  0.32924689  0.28726149    -0.12200
C726        C  0.14915829  0.35521987  0.29857048     0.01700
H727        H  0.15670162  0.35210452  0.41702079     0.14700
H728        H  0.17080684  0.32217835  0.25093595     0.14700
C729        C  0.13384443  0.37241116  0.26127023     0.36400
C730        C  0.19724026  0.30515175  0.40632439     0.36300
N731        N  0.12170088  0.38623722  0.23134284    -0.44000
N732        N  0.21210353  0.29397553  0.43608906    -0.44000
C733        C  0.13709663  0.05141039  0.25636221    -0.00400
C734        C  0.12741406  0.02877507  0.21338511    -0.12300
C735        C  0.10348815  0.98150621  0.21070066     0.01800
C736        C  0.08873514  0.95503485  0.25187289    -0.00500
C737        C  0.10131117  0.97779087  0.29492315    -0.12200
C738        C  0.12498672  0.02512089  0.29754170     0.01700
H739        H  0.13675643  0.04805242  0.18124649     0.14700
H740        H  0.09111885  0.95862273  0.32709052     0.14700
C741        C  0.13583112  0.04547182  0.34313394     0.36400
C742        C  0.09341596  0.96168318  0.16486549     0.36300
N743        N  0.14450096  0.06164675  0.37973546    -0.44000
N744        N  0.08535473  0.94609948  0.12798798    -0.44000
C745        C  0.94776641  0.09284127  0.25145025    -0.00400
C746        C  0.97145745  0.10167191  0.29367874    -0.12300
C747        C  0.01873085  0.12526299  0.29506681     0.01800
C748        C  0.04421332  0.14149632  0.25339435    -0.00500
C749        C  0.02070418  0.13410628  0.21132923    -0.12200
C750        C  0.97335178  0.11027683  0.20988498     0.01700
H751        H  0.95299389  0.08867594  0.32599920     0.14700
H752        H  0.03944982  0.14609638  0.17902013     0.14700
C753        C  0.95249319  0.10282892  0.16469742     0.36400
C754        C  0.03973965  0.12927021  0.33969744     0.36300
N755        N  0.93600554  0.09687450  0.12834712    -0.44000
N756        N  0.05643528  0.13220044  0.37546840    -0.44000
C757        C  0.30320083  0.11887421  0.67325373    -0.00400
C758        C  0.33459065  0.14906219  0.70551815    -0.12300
C759        C  0.36340846  0.19402944  0.69403510     0.01800
C760        C  0.36082383  0.20955918  0.64932069    -0.00500
C761        C  0.33038651  0.17899344  0.61661179    -0.12200
C762        C  0.30175190  0.13401893  0.62802682     0.01700
H763        H  0.33598528  0.13789322  0.74050769     0.14700
H764        H  0.32887116  0.19010976  0.58162281     0.14700
C765        C  0.27198440  0.10455143  0.59228226     0.36400
C766        C  0.39416279  0.22309536  0.72936988     0.36300
N767        N  0.24824767  0.08115466  0.56349052    -0.44000
N768        N  0.41881142  0.24613175  0.75778851    -0.44000
C769        C  0.29608280  0.23127243  0.38094994    -0.00400
C770        C  0.34196546  0.24790962  0.37159235    -0.12300
C771        C  0.37385227  0.26262540  0.40780150     0.01800
C772        C  0.36034113  0.26331675  0.45408805    -0.00500
C773        C  0.31414453  0.24435841  0.46354340    -0.12200
C774        C  0.28207446  0.22749262  0.42769628     0.01700
H775        H  0.35307371  0.25057788  0.33577971     0.14700
H776        H  0.30317433  0.24398072  0.49903664     0.14700
C777        C  0.23522603  0.20900432  0.43945374     0.36400
C778        C  0.42042719  0.27909897  0.39632114     0.36300
N779        N  0.19759686  0.19384514  0.44876313    -0.44000
N780        N  0.45772208  0.29182243  0.38731771    -0.44000
C781        C  0.61418675  0.43461119  0.58057339    -0.00400
C782        C  0.63746321  0.44876282  0.62299180    -0.12300
C783        C  0.68459784  0.47127462  0.62476211     0.01800
C784        C  0.71010570  0.48009443  0.58318611    -0.00500
C785        C  0.68704238  0.46954949  0.54055976    -0.12200
C786        C  0.63988699  0.44753111  0.53875567     0.01700
H787        H  0.61874670  0.44036200  0.65541648     0.14700
H788        H  0.70585160  0.47722030  0.50823693     0.14700
C789        C  0.61935945  0.43741571  0.49321287     0.36400
C790        C  0.70513231  0.48236074  0.67026924     0.36300
N791        N  0.60316733  0.42951827  0.45660900    -0.44000
N792        N  0.72132670  0.49111825  0.70685747    -0.44000
C793        C  0.52374090  0.24441241  0.58110045    -0.00400
C794        C  0.53683194  0.23462500  0.62401614    -0.12300
C795        C  0.55835232  0.20912839  0.62676885     0.01800
C796        C  0.56812801  0.19275691  0.58575221    -0.00500
C797        C  0.55200429  0.19964958  0.54319281    -0.12200
C798        C  0.52994093  0.22472343  0.54053580     0.01700
H799        H  0.53145897  0.24806888  0.65591254     0.14700
H800        H  0.55788300  0.18663099  0.51127197     0.14700
C801        C  0.51425194  0.22955882  0.49549456     0.36400
C802        C  0.57037480  0.20106601  0.67244806     0.36300
N803        N  0.50148819  0.23314451  0.45938073    -0.44000
N804        N  0.57981321  0.19457082  0.70914386    -0.44000
C805        C  0.38534291  0.42576386  0.78652787    -0.00400
C806        C  0.42969149  0.45296243  0.76960650    -0.12300
C807        C  0.44696128  0.43773016  0.73338609     0.01800
C808        C  0.41957142  0.39471633  0.71309111    -0.00500
C809        C  0.37530891  0.36844444  0.72977103    -0.12200
C810        C  0.35818594  0.38317236  0.76532035     0.01700
H811        H  0.45115093  0.48565382  0.78523339     0.14700
H812        H  0.35335254  0.33543697  0.71492740     0.14700
C813        C  0.31177336  0.35333976  0.77856200     0.36400
C814        C  0.49225142  0.46714157  0.71705170     0.36300
N815        N  0.27470024  0.32906990  0.78906288    -0.44000
N816        N  0.52858062  0.49080339  0.70390097    -0.44000
C817        C  0.22466737  0.30354873  0.12459336    -0.00400
C818        C  0.21723704  0.28818181  0.07844315    -0.12300
C819        C  0.23329091  0.31871504  0.04080329     0.01800
C820        C  0.25624996  0.36578955  0.04877723    -0.00500
C821        C  0.26036009  0.38104527  0.09478106    -0.12200
C822        C  0.24548031  0.35054905  0.13249656     0.01700
H823        H  0.20161018  0.25233350  0.07178253     0.14700
H824        H  0.27795387  0.41699305  0.10149243     0.14700
C825        C  0.25338332  0.36852996  0.17910330     0.36400
C826        C  0.22707601  0.30089903  0.99421020     0.36300
N827        N  0.25997562  0.38342364  0.21626595    -0.35000
N828        N  0.22214872  0.28654835  0.95690308    -0.44000
C829        C  0.20489743  0.36307788  0.84836645    -0.00400
C830        C  0.17217741  0.33354557  0.88017020    -0.12300
C831        C  0.12837306  0.30371766  0.86596255     0.01800
C832        C  0.11647433  0.30373004  0.81897061    -0.00500
C833        C  0.14931238  0.33294204  0.78707925    -0.12200
C834        C  0.19325249  0.36238899  0.80118553     0.01700
H835        H  0.18063978  0.33402332  0.91660581     0.14700
H836        H  0.14085387  0.33235656  0.75062510     0.14700
C837        C  0.22560947  0.39007212  0.76604849     0.36400
C838        C  0.09658139  0.27452085  0.90076187     0.36300
N839        N  0.25146689  0.41202920  0.73776836    -0.44000
N840        N  0.07130755  0.25115194  0.92876866    -0.44000
C841        C  0.42725708  0.62106310  0.92062401    -0.00400
C842        C  0.43574795  0.64383218  0.96351964    -0.12300
C843        C  0.45909050  0.69115604  0.96602042     0.01800
C844        C  0.47415038  0.71742240  0.92480056    -0.00500
C845        C  0.46972116  0.69473744  0.88252994    -0.12200
C846        C  0.44707538  0.64738337  0.88016263     0.01700
H847        H  0.42256559  0.62467277  0.99544828     0.14700
H848        H  0.48253739  0.71393417  0.85057159     0.14700
C849        C  0.44466573  0.62703344  0.83556088     0.36400
C850        C  0.46659809  0.71145168  0.01152941     0.36300
N851        N  0.44310523  0.61082305  0.79983475    -0.44000
N852        N  0.47280928  0.72755742  0.04809968    -0.44000
C853        C  0.23672719  0.52869882  0.92176015    -0.00400
C854        C  0.22869116  0.54455849  0.96368472    -0.12300
C855        C  0.20456005  0.56745319  0.96474299     0.01800
C856        C  0.18795748  0.57566484  0.92283319    -0.00500
C857        C  0.19270258  0.55643006  0.88159421    -0.12200
C858        C  0.21630693  0.53299079  0.88068205     0.01700
H859        H  0.24279143  0.54063887  0.99588690     0.14700
H860        H  0.17910960  0.56086139  0.84928580     0.14700
C861        C  0.21922770  0.51437190  0.83668350     0.36400
C862        C  0.19891345  0.58310135  0.00947777     0.36300
N863        N  0.22134806  0.49940150  0.80137264    -0.44000
N864        N  0.19444813  0.59544238  0.04545766    -0.44000
C865        C  0.68908844  0.81818354  0.82254852    -0.00400
C866        C  0.67911385  0.81640290  0.86995775    -0.12300
C867        C  0.65313089  0.83409284  0.88605876     0.01800
C868        C  0.63775364  0.85464029  0.85421402    -0.00500
C869        C  0.64851564  0.85718966  0.80698299    -0.12200
C870        C  0.67429383  0.83936882  0.79087340     0.01700
H871        H  0.69058886  0.80006330  0.89416045     0.14700
H872        H  0.63693475  0.87337920  0.78270305     0.14700
C873        C  0.68658035  0.84511155  0.74218167     0.36400
C874        C  0.64033063  0.82790131  0.93460252     0.36300
N875        N  0.69635599  0.85028884  0.70317252    -0.44000
N876        N  0.63002822  0.82235119  0.97347054    -0.44000
C877        C  0.80445173  0.69085334  0.68026299    -0.00400
C878        C  0.84255728  0.70989453  0.65142802    -0.12300
C879        C  0.86369913  0.68591010  0.63955417     0.01800
C880        C  0.84618369  0.64135736  0.65616578    -0.00500
C881        C  0.80785226  0.62212858  0.68476543    -0.12200
C882        C  0.78686126  0.64628933  0.69694393     0.01700
H883        H  0.85699280  0.74437947  0.63924599     0.14700
H884        H  0.79356202  0.58767817  0.69696340     0.14700
C885        C  0.74709737  0.62397405  0.72590870     0.36400
C886        C  0.90411275  0.70883050  0.61164065     0.36300
N887        N  0.71534906  0.60594573  0.74920658    -0.44000
N888        N  0.93654420  0.72756167  0.58943992    -0.44000
C889        C  0.84983276  0.95151855  0.74759707    -0.00400
C890        C  0.85887088  0.97512927  0.70520942    -0.12300
C891        C  0.88127627  0.02257107  0.70376586     0.01800
C892        C  0.89610534  0.04800844  0.74556051    -0.00500
C893        C  0.88421652  0.02419613  0.78794708    -0.12200
C894        C  0.86160944  0.97691964  0.78944695     0.01700
H895        H  0.84928620  0.95648971  0.67280009     0.14700
H896        H  0.89464096  0.04258712  0.82047680     0.14700
C897        C  0.85390229  0.95606923  0.83484459     0.36400
C898        C  0.88898147  0.04383168  0.65861819     0.36300
N899        N  0.84790834  0.93956670  0.87130036    -0.44000
N900        N  0.89497564  0.06070027  0.62235711    -0.44000
C901        C  0.94404356  0.85940837  0.75152773    -0.00400
C902        C  0.96646344  0.86242831  0.70933519    -0.12300
C903        C  0.01379117  0.88539675  0.70642699     0.01800
C904        C  0.04022956  0.90661502  0.74623605    -0.00500
C905        C  0.01777334  0.90097056  0.78888494    -0.12200
C906        C  0.97065443  0.87758006  0.79201817     0.01700
H907        H  0.94705078  0.84787231  0.67794901     0.14700
H908        H  0.03708506  0.91648544  0.82007211     0.14700
C909        C  0.95101829  0.87354428  0.83749943     0.36400
C910        C  0.03410209  0.88626505  0.66217048     0.36300
N911        N  0.93542234  0.87026555  0.87402619    -0.44000
N912        N  0.05028613  0.88663838  0.62672384    -0.44000
C913        C  0.86982554  0.69757648  0.18479124    -0.00400
C914        C  0.83637836  0.67492035  0.21872215    -0.12300
C915        C  0.79153806  0.64804494  0.20609615     0.01800
C916        C  0.77990353  0.64367926  0.15867876    -0.00500
C917        C  0.81329323  0.66671473  0.12480656    -0.12200
C918        C  0.85811520  0.69340632  0.13736908     0.01700
H919        H  0.84518412  0.67876786  0.25536132     0.14700
H920        H  0.80453994  0.66281603  0.08814838     0.14700
C921        C  0.89127166  0.71428784  0.10078852     0.36400
C922        C  0.75833247  0.62674476  0.24250536     0.36300
N923        N  0.91780689  0.73090693  0.07147575    -0.44000
N924        N  0.73191476  0.60988274  0.27186789    -0.44000
C925        C  0.73342542  0.64047051  0.95786163    -0.00400
C926        C  0.74586496  0.68589207  0.96485382    -0.12300
C927        C  0.76185586  0.71738506  0.92813425     0.01800
C928        C  0.76538408  0.70390123  0.88275186    -0.00500
C929        C  0.75530554  0.65921929  0.87595595    -0.12200
C930        C  0.74017041  0.62778930  0.91303973     0.01700
H931        H  0.74131512  0.69651652  0.99895134     0.14700
H932        H  0.75759819  0.64836023  0.84116342     0.14700
C933        C  0.72888292  0.58211868  0.90326682     0.36400
C934        C  0.77123954  0.76262848  0.93719849     0.36300
N935        N  0.72003409  0.54556400  0.89528823    -0.44000
N936        N  0.77866526  0.79885435  0.94444874    -0.44000
C937        C  0.44976202  0.48388642  0.98637086    -0.00400
C938        C  0.47019832  0.52354577  0.01275261    -0.12300
C939        C  0.51530605  0.54396846  0.02481787     0.01800
C940        C  0.54074241  0.52424815  0.01060580    -0.00500
C941        C  0.52071497  0.48526942  0.98320331    -0.12200
C942        C  0.47555237  0.46485351  0.97103253     0.01700
H943        H  0.45109770  0.53925182  0.02342145     0.14700
H944        H  0.53992283  0.46964545  0.97264135     0.14700
C945        C  0.45670081  0.42385613  0.94407983     0.36400
C946        C  0.53438971  0.58535267  0.05117974     0.36300
N947        N  0.44177162  0.39110519  0.92238768    -0.44000
N948        N  0.54948831  0.61841960  0.07235684    -0.44000
C949        C  0.75216834  0.47648242  0.08316486    -0.00400
C950        C  0.75267525  0.45314028  0.04324255    -0.12300
C951        C  0.77453056  0.42800987  0.04256766     0.01800
C952        C  0.79766084  0.42588809  0.08254831    -0.00500
C953        C  0.79925299  0.45114752  0.12176706    -0.12200
C954        C  0.77716432  0.47629574  0.12243144     0.01700
H955        H  0.73398990  0.45261366  0.01264980     0.14700
H956        H  0.81711679  0.45057092  0.15258761     0.14700
C957        C  0.78044087  0.50090581  0.16432355     0.36400
C958        C  0.76960425  0.40237338  0.00098012     0.36300
N959        N  0.78320055  0.52062805  0.19794432    -0.44000
N960        N  0.76533111  0.38175671  0.96764045    -0.44000
C961        C  0.56677709  0.38365147  0.08318611    -0.00400
C962        C  0.55279653  0.35912495  0.12514610    -0.12300
C963        C  0.52818998  0.31164457  0.12580068     0.01800
C964        C  0.51709627  0.28684624  0.08351631    -0.00500
C965        C  0.52902644  0.31144608  0.04157905    -0.12200
C966        C  0.55325168  0.35886808  0.04091765     0.01700
H967        H  0.56213152  0.37710199  0.15795167     0.14700
H968        H  0.52064192  0.29354427  0.00873973     0.14700
C969        C  0.56542339  0.38061997  0.99588513     0.36400
C970        C  0.51666387  0.28982764  0.17081658     0.36300
N971        N  0.57510680  0.39787356  0.95970891    -0.44000
N972        N  0.50752748  0.27262098  0.20703360    -0.44000
C973        C  0.55776044  0.59717769  0.28977696    -0.00400
C974        C  0.58077468  0.57371015  0.29845781    -0.12300
C975        C  0.59500768  0.55650244  0.26180382     0.01800
C976        C  0.58833646  0.56443556  0.21501273    -0.00500
C977        C  0.56375733  0.58631410  0.20637862    -0.12200
C978        C  0.54759654  0.60158246  0.24308117     0.01700
H979        H  0.58863553  0.56972856  0.33407510     0.14700
H980        H  0.55825017  0.59266275  0.17068841     0.14700
C981        C  0.52306021  0.62415532  0.23179925     0.36400
C982        C  0.61872234  0.53309312  0.27302315     0.36300
N983        N  0.50309230  0.64197876  0.22287663    -0.44000
N984        N  0.63743941  0.51398398  0.28188490    -0.44000
C985        C  0.62736300  0.73879114  0.54801846    -0.00400
C986        C  0.67391902  0.76204261  0.53887080    -0.12300
C987        C  0.70570452  0.77813369  0.57520799     0.01800
C988        C  0.69126754  0.76990070  0.62207836    -0.00500
C989        C  0.64472951  0.74833075  0.63124119    -0.12200
C990        C  0.61296449  0.73353201  0.59485000     0.01700
H991        H  0.68550517  0.76617096  0.50310669     0.14700
H992        H  0.63307279  0.74166050  0.66703338     0.14700
C993        C  0.56570489  0.71009183  0.60648901     0.36400
C994        C  0.75286241  0.79975127  0.56346382     0.36300
N995        N  0.52779251  0.69137021  0.61573402    -0.44000
N996        N  0.79069338  0.81708892  0.55411704    -0.44000
C997        C  0.68825668  0.88125671  0.32555597    -0.00400
C998        C  0.66486152  0.84888293  0.29107825    -0.12300
C999        C  0.63823438  0.80362203  0.30247152     0.01800
C1000       C  0.63526285  0.79013686  0.34927659    -0.00500
C1001       C  0.65867920  0.82252996  0.38386556    -0.12200
C1002       C  0.68489021  0.86798332  0.37246595     0.01700
H1003       H  0.66809734  0.85881586  0.25476636     0.14700
H1004       H  0.65559024  0.81249763  0.42014744     0.14700
C1005       C  0.70632632  0.90012203  0.40963621     0.36400
C1006       C  0.61540659  0.77201008  0.26522702     0.36300
N1007       N  0.72330370  0.92579590  0.43948937    -0.44000
N1008       N  0.59703001  0.74681719  0.23533150    -0.44000
C1009       C  0.50752072  0.54599971  0.49011464    -0.00400
C1010       C  0.49250865  0.51270605  0.45554964    -0.12300
C1011       C  0.47476869  0.46762480  0.46739701     0.01800
C1012       C  0.47256082  0.45569978  0.51455137    -0.00500
C1013       C  0.48635830  0.48877840  0.54923214    -0.12200
C1014       C  0.50374949  0.53387166  0.53741095     0.01700
H1015       H  0.49415288  0.52191965  0.41912754     0.14700
H1016       H  0.48473847  0.47951680  0.58563584     0.14700
C1017       C  0.51930060  0.56694126  0.57419044     0.36400
C1018       C  0.45743887  0.43425912  0.43087427     0.36300
N1019       N  0.53176045  0.59335068  0.60372834    -0.44000
N1020       N  0.44322214  0.40747456  0.40169253    -0.44000
C1021       C  0.47030544  0.76339828  0.41612257    -0.00400
C1022       C  0.45585190  0.77332883  0.45790136    -0.12300
C1023       C  0.43196602  0.79653159  0.45833033     0.01800
C1024       C  0.42091854  0.81006747  0.41592739    -0.00500
C1025       C  0.43796454  0.80285354  0.37437622    -0.12200
C1026       C  0.46279291  0.78052016  0.37406230     0.01700
H1027       H  0.46194398  0.76163181  0.49067973     0.14700
H1028       H  0.43108857  0.81389948  0.34160157     0.14700
C1029       C  0.47904696  0.77504764  0.32960596     0.36400
C1030       C  0.41778765  0.80396633  0.50312712     0.36300
N1031       N  0.49224146  0.77099177  0.29393711    -0.44000
N1032       N  0.40665188  0.80999696  0.53911532    -0.44000
C1033       C  0.27930034  0.52833284  0.41977777    -0.00400
C1034       C  0.30258072  0.53362724  0.37763866    -0.12300
C1035       C  0.34986685  0.55714031  0.37563317     0.01800
C1036       C  0.37538063  0.57627003  0.41644871    -0.00500
C1037       C  0.35213964  0.56813529  0.45899851    -0.12200
C1038       C  0.30497148  0.54463665  0.46108799     0.01700
H1039       H  0.28387506  0.52070803  0.34555971     0.14700
H1040       H  0.37085743  0.58177766  0.49095899     0.14700
C1041       C  0.28429065  0.53870805  0.50629875     0.36400
C1042       C  0.37109793  0.56103038  0.33113562     0.36300
N1043       N  0.26788705  0.53404671  0.54260822    -0.44000
N1044       N  0.38814208  0.56402196  0.29551733    -0.44000
loop_ 
_geom_bond_atom_site_label_1 
_geom_bond_atom_site_label_2 
_geom_bond_distance 
_geom_bond_site_symmetry_2 
_ccdc_geom_bond_type 
O1          Cr19   1.938       .  S
O1            C9   1.262       .  A
O2          Cr19   2.002       .  S
O2            C3   1.257       .  A
C3            O4   1.261       .  A
C3          C985   1.496       .  S
O4          Cr20   2.011       .  S
O5          Cr20   2.010       .  S
O5            C6   1.268       .  A
C6            O7   1.261       .  A
C6         C1021   1.508       .  S
O7          Cr21   1.984       .  S
O8          Cr21   2.005       .  S
O8            C9   1.274       .  A
C9         C1000   1.460       .  S
O10         Cr19   2.007       .  S
O10          C18   1.258       .  A
O11         Cr19   1.937       .  S
O11          C12   1.262       .  A
C12          O13   1.274       .  A
C12        C1009   1.457       .  S
O13         Cr20   2.012       .  S
O14         Cr20   1.980       .  S
O14          C15   1.262       .  A
C15          O16   1.266       .  A
C15        C1036   1.499       .  S
O16         Cr21   2.004       .  S
O17         Cr21   2.013       .  S
O17          C18   1.261       .  A
C18         C973   1.502       .  S
Cr19         O22   1.781       .  S
Cr20         O22   1.779       .  S
Cr21         O22   1.778       .  S
O23         Cr41   1.933       .  S
O23          C31   1.261       .  A
O24         Cr41   2.002       .  S
O24          C25   1.258   1_554  A
C25          O26   1.262   1_556  A
C25         C925   1.504       .  S
O26         Cr42   2.016       .  S
O27         Cr42   2.005       .  S
O27          C28   1.268       .  A
C28          O29   1.262       .  A
C28         C949   1.508       .  S
O29         Cr43   1.990       .  S
O30         Cr43   2.010       .  S
O30          C31   1.273       .  A
C31         C916   1.457       .  S
O32         Cr41   2.002       .  S
O32          C40   1.257       .  A
O33         Cr41   1.933       .  S
O33          C34   1.259       .  A
C34          O35   1.274       .  A
C34         C940   1.461       .  S
O35         Cr42   2.010       .  S
O36         Cr42   1.984       .  S
O36          C37   1.262       .  A
C37          O38   1.270       .  A
C37         C961   1.508       .  S
O38         Cr43   2.016       .  S
O39         Cr43   2.017       .  S
O39          C40   1.263       .  A
C40         C976   1.501       .  S
Cr41         O44   1.779       .  S
Cr42         O44   1.779       .  S
Cr43         O44   1.781       .  S
O45         Cr63   1.947       .  S
O45          C53   1.260       .  A
O46         Cr63   2.004       .  S
O46          C47   1.259       .  A
C47          O48   1.262       .  A
C47         C988   1.498       .  S
O48         Cr64   2.010       .  S
O49         Cr64   2.022       .  S
O49          C50   1.271       .  A
C50          O51   1.259       .  A
C50         C889   1.504       .  S
O51         Cr65   1.976       .  S
O52         Cr65   2.001       .  S
O52          C53   1.269       .  A
C53         C865   1.452       .  S
O54         Cr63   2.011       .  S
O54          C62   1.261       .  A
O55         Cr63   1.943       .  S
O55          C56   1.260       .  A
C56          O57   1.275       .  A
C56         C877   1.470       .  S
O57         Cr64   2.012       .  S
O58         Cr64   1.990       .  S
O58          C59   1.262       .  A
C59          O60   1.266       .  A
C59         C901   1.505       .  S
O60         Cr65   2.003       .  S
O61         Cr65   2.007       .  S
O61          C62   1.262       .  A
C62         C928   1.493       .  S
Cr63         O66   1.779       .  S
Cr64         O66   1.778       .  S
Cr65         O66   1.775       .  S
O67         Cr85   2.018       .  S
O67          C75   1.279       .  A
O68         Cr85   1.988       .  S
O68          C69   1.262       .  A
C69          O70   1.265       .  A
C69         C853   1.502       .  S
O70         Cr86   1.994       .  S
O71         Cr86   2.013   1_554  S
O71          C72   1.256       .  A
C72          O73   1.251   1_554  A
C72         C820   1.494       .  S
O73         Cr87   1.992       .  S
O74         Cr87   1.940       .  S
O74          C75   1.267       .  A
C75         C829   1.468       .  S
O76         Cr85   2.033       .  S
O76          C84   1.260       .  A
O77         Cr85   2.004       .  S
O77          C78   1.267       .  A
C78          O79   1.263       .  A
C78         C841   1.506       .  S
O79         Cr86   1.987       .  S
O80         Cr86   2.011       .  S
O80          C81   1.279       .  A
C81          O82   1.264       .  A
C81         C937   1.464       .  S
O82         Cr87   1.937       .  S
O83         Cr87   1.982       .  S
O83          C84   1.251       .  A
C84         C805   1.507       .  S
Cr85         O88   1.776       .  S
Cr86         O88   1.776       .  S
Cr87         O88   1.774       .  S
O89        Cr107   2.018       .  S
O89          C97   1.279       .  A
O90        Cr107   1.994       .  S
O90          C91   1.265       .  A
C91          O92   1.267       .  A
C91         C793   1.510       .  S
O92        Cr108   2.005       .  S
O93        Cr108   2.009       .  S
O93          C94   1.255       .  A
C94          O95   1.252       .  A
C94         C772   1.492       .  S
O95        Cr109   1.992       .  S
O96        Cr109   1.929       .  S
O96          C97   1.265       .  A
C97         C760   1.467       .  S
O98        Cr107   2.036       .  S
O98         C106   1.260       .  A
O99        Cr107   1.999       .  S
O99         C100   1.267       .  A
C100        O101   1.260       .  A
C100        C781   1.500       .  S
O101       Cr108   1.977       .  S
O102       Cr108   2.022       .  S
O102        C103   1.281       .  A
C103        O104   1.265       .  A
C103       C1012   1.456       .  S
O104       Cr109   1.934       .  S
O105       Cr109   1.985       .  S
O105        C106   1.252       .  A
C106        C808   1.509       .  S
Cr107       O110   1.773       .  S
Cr108       O110   1.772       .  S
Cr109       O110   1.774       .  S
O111       Cr129   2.008       .  S
O111        C119   1.273       .  A
O112       Cr129   1.981       .  S
O112        C113   1.262       .  A
C113        O114   1.267       .  A
C113        C733   1.501       .  S
O114       Cr130   2.009       .  S
O115       Cr130   2.003       .  S
O115        C116   1.260       .  A
C116        O117   1.258       .  A
C116        C769   1.489       .  S
O117       Cr131   2.001       .  S
O118       Cr131   1.942       .  S
O118        C119   1.260       .  A
C119        C712   1.459       .  S
O120       Cr129   2.013       .  S
O120        C128   1.263       .  A
O121       Cr129   2.014       .  S
O121        C122   1.268       .  A
C122        O123   1.261       .  A
C122        C748   1.502       .  S
O123       Cr130   1.982       .  S
O124       Cr130   2.012       .  S
O124        C125   1.272       .  A
C125        O126   1.260       .  A
C125        C724   1.459       .  S
O126       Cr131   1.941       .  S
O127       Cr131   1.999       .  S
O127        C128   1.258       .  A
C128        C817   1.494       .  S
Cr129       O132   1.777       .  S
Cr130       O132   1.777       .  S
Cr131       O132   1.781       .  S
O133       Cr151   1.938       .  S
O133        C141   1.262       .  A
O134       Cr151   2.000       .  S
O134        C135   1.257       .  A
C135        O136   1.261       .  A
C135        C688   1.494       .  S
O136       Cr152   2.009       .  S
O137       Cr152   2.008       .  S
O137        C138   1.266       .  A
C138        O139   1.260       .  A
C138        C697   1.506       .  S
O139       Cr153   1.985       .  S
O140       Cr153   2.011   1_556  S
O140        C141   1.273   1_556  A
C141        C664   1.466       .  S
O142       Cr151   2.002       .  S
O142        C150   1.257   1_554  A
O143       Cr151   1.949       .  S
O143        C144   1.263       .  A
C144        O145   1.273       .  A
C144        C709   1.458       .  S
O145       Cr152   2.006       .  S
O146       Cr152   1.986       .  S
O146        C147   1.262       .  A
C147        O148   1.271       .  A
C147        C964   1.509       .  S
O148       Cr153   2.015       .  S
O149       Cr153   2.015   1_556  S
O149        C150   1.262       .  A
C150        C673   1.498       .  S
Cr151       O154   1.785       .  S
Cr152       O154   1.782       .  S
Cr153       O154   1.783       .  S
O155       Cr173   1.932   1_545  S
O155        C163   1.262       .  A
O156       Cr173   2.001   1_545  S
O156        C157   1.256       .  A
C157        O158   1.261       .  A
C157        C676   1.503       .  S
O158       Cr174   2.017   1_545  S
O159       Cr174   1.995   1_545  S
O159        C160   1.265       .  A
C160        O161   1.263       .  A
C160        C649   1.507       .  S
O161       Cr175   1.995       .  S
O162       Cr175   2.009       .  S
O162        C163   1.275       .  A
C163        C757   1.465       .  S
O164       Cr173   1.996       .  S
O164        C172   1.254       .  A
O165       Cr173   1.937       .  S
O165        C166   1.262       .  A
C166        O167   1.272       .  A
C166        C640   1.459       .  S
O167       Cr174   2.006       .  S
O168       Cr174   1.985       .  S
O168        C169   1.264       .  A
C169        O170   1.268       .  A
C169        C904   1.503       .  S
O170       Cr175   2.008   1_565  S
O171       Cr175   2.017   1_565  S
O171        C172   1.261       .  A
C172        C625   1.498       .  S
Cr173       O176   1.782       .  S
Cr174       O176   1.780       .  S
Cr175       O176   1.783   1_545  S
O177       Cr195   1.946       .  S
O177        C185   1.263       .  A
O178       Cr195   1.992       .  S
O178        C179   1.254       .  A
C179        O180   1.260       .  A
C179        C685   1.493       .  S
O180       Cr196   2.012       .  S
O181       Cr196   2.014       .  S
O181        C182   1.270       .  A
C182        O183   1.261       .  A
C182       C1024   1.506       .  S
O183       Cr197   1.982       .  S
O184       Cr197   2.006       .  S
O184        C185   1.272       .  A
C185        C604   1.453       .  S
O186       Cr195   2.003       .  S
O186        C194   1.257       .  A
O187       Cr195   1.937       .  S
O187        C188   1.264       .  A
C188        O189   1.275       .  A
C188        C589   1.468       .  S
O189       Cr196   2.014       .  S
O190       Cr196   1.978       .  S
O190        C191   1.260       .  A
C191        O192   1.264       .  A
C191        C616   1.498       .  S
O192       Cr197   1.998       .  S
O193       Cr197   2.013       .  S
O193        C194   1.261       .  A
C194        C628   1.500       .  S
Cr195       O198   1.777       .  S
Cr196       O198   1.779       .  S
Cr197       O198   1.777       .  S
O199       Cr217   2.003       .  S
O199        C207   1.272       .  A
O200       Cr217   1.988       .  S
O200        C201   1.263       .  A
C201        O202   1.268       .  A
C201        C844   1.506       .  S
O202       Cr218   2.008       .  S
O203       Cr218   2.018   1_554  S
O203        C204   1.262       .  A
C204        O205   1.256   1_554  A
C204        C556   1.499       .  S
O205       Cr219   1.999       .  S
O206       Cr219   1.946       .  S
O206        C207   1.260       .  A
C207        C868   1.452       .  S
O208       Cr217   2.016       .  S
O208        C216   1.263       .  A
O209       Cr217   2.006       .  S
O209        C210   1.266       .  A
C210        O211   1.263       .  A
C210        C580   1.508       .  S
O211       Cr218   1.990       .  S
O212       Cr218   2.009       .  S
O212        C213   1.274       .  A
C213        O214   1.262       .  A
C213        C661   1.466       .  S
O214       Cr219   1.944       .  S
O215       Cr219   2.002       .  S
O215        C216   1.258       .  A
C216        C568   1.500       .  S
Cr217       O220   1.778       .  S
Cr218       O220   1.777       .  S
Cr219       O220   1.779       .  S
O221       Cr239   2.007       .  S
O221        C229   1.271       .  A
O222       Cr239   1.991       .  S
O222        C223   1.264       .  A
C223        O224   1.265       .  A
C223        C541   1.505       .  S
O224       Cr240   2.001   1_565  S
O225       Cr240   2.016   1_565  S
O225        C226   1.262       .  A
C226        O227   1.256       .  A
C226        C553   1.498       .  S
O227       Cr241   1.999   1_565  S
O228       Cr241   1.935   1_565  S
O228        C229   1.260       .  A
C229        C997   1.459       .  S
O230       Cr239   2.016   1_545  S
O230        C238   1.262       .  A
O231       Cr239   2.006   1_545  S
O231        C232   1.267       .  A
C232        O233   1.262       .  A
C232        C745   1.508       .  S
O233       Cr240   1.989       .  S
O234       Cr240   2.006       .  S
O234        C235   1.272       .  A
C235        O236   1.260       .  A
C235        C517   1.451       .  S
O236       Cr241   1.937       .  S
O237       Cr241   1.998       .  S
O237        C238   1.256       .  A
C238        C529   1.493       .  S
Cr239       O242   1.782   1_565  S
Cr240       O242   1.780       .  S
Cr241       O242   1.784       .  S
O243       Cr261   2.012       .  S
O243        C251   1.274       .  A
O244       Cr261   1.996       .  S
O244        C245   1.266       .  A
C245        O246   1.268       .  A
C245        C796   1.510       .  S
O246       Cr262   2.006       .  S
O247       Cr262   2.018       .  S
O247        C248   1.262       .  A
C248        O249   1.255       .  A
C248        C565   1.498       .  S
O249       Cr263   1.997       .  S
O250       Cr263   1.945       .  S
O250        C251   1.262       .  A
C251        C601   1.453       .  S
O252       Cr261   2.027       .  S
O252        C260   1.263       .  A
O253       Cr261   2.003       .  S
O253        C254   1.266       .  A
C254        O255   1.263       .  A
C254        C505   1.508       .  S
O255       Cr262   1.989       .  S
O256       Cr262   2.011       .  S
O256        C257   1.275       .  A
C257        O258   1.264       .  A
C257        C493   1.462       .  S
O258       Cr263   1.952       .  S
O259       Cr263   1.992       .  S
O259        C260   1.254       .  A
C260        C532   1.504       .  S
Cr261       O264   1.779       .  S
Cr262       O264   1.776       .  S
Cr263       O264   1.779       .  S
O265       Cr283   1.946       .  S
O265        C273   1.261       .  A
O266       Cr283   1.998       .  S
O266        C267   1.258       .  A
C267        O268   1.263       .  A
C267        C472   1.496       .  S
O268       Cr284   2.014       .  S
O269       Cr284   2.005       .  S
O269        C270   1.267       .  A
C270        O271   1.262       .  A
C270       C1033   1.502       .  S
O271       Cr285   1.986       .  S
O272       Cr285   2.004       .  S
O272        C273   1.271       .  A
C273        C721   1.459       .  S
O274       Cr283   1.995       .  S
O274        C282   1.257       .  A
O275       Cr283   1.947       .  S
O275        C276   1.261       .  A
C276        O277   1.272       .  A
C276        C457   1.463       .  S
O277       Cr284   2.005       .  S
O278       Cr284   1.980       .  S
O278        C279   1.261       .  A
C279        O280   1.265       .  A
C279        C613   1.496       .  S
O280       Cr285   2.001       .  S
O281       Cr285   2.011       .  S
O281        C282   1.262       .  A
C282        C481   1.491       .  S
Cr283       O286   1.776       .  S
Cr284       O286   1.776       .  S
Cr285       O286   1.779       .  S
O287       Cr305   1.933       .  S
O287        C295   1.264       .  A
O288       Cr305   1.987       .  S
O288        C289   1.249       .  A
C289        O290   1.257       .  A
C289        C484   1.492       .  S
O290       Cr306   2.017       .  S
O291       Cr306   2.005       .  S
O291        C292   1.267       .  A
C292        O293   1.263       .  A
C292        C952   1.506       .  S
O293       Cr307   1.989       .  S
O294       Cr307   2.022       .  S
O294        C295   1.282       .  A
C295        C445   1.456       .  S
O296       Cr305   1.993       .  S
O296        C304   1.252   1_554  A
O297       Cr305   1.934       .  S
O297        C298   1.267       .  A
C298        O299   1.282       .  A
C298        C520   1.454       .  S
O299       Cr306   2.020       .  S
O300       Cr306   1.988       .  S
O300        C301   1.262       .  A
C301        O302   1.268       .  A
C301        C700   1.508       .  S
O302       Cr307   2.004       .  S
O303       Cr307   2.031       .  S
O303        C304   1.259   1_554  A
C304        C433   1.512       .  S
Cr305       O308   1.778       .  S
Cr306       O308   1.774       .  S
Cr307       O308   1.772       .  S
O309       Cr327   1.943   1_455  S
O309        C317   1.270       .  A
O310       Cr327   1.992   1_455  S
O310        C311   1.250       .  A
C311        O312   1.256       .  A
C311        C469   1.496       .  S
O312       Cr328   2.016   1_455  S
O313       Cr328   2.005   1_455  S
O313        C314   1.267       .  A
C314        O315   1.263       .  A
C314        C652   1.508       .  S
O315       Cr329   1.990   1_455  S
O316       Cr329   2.017   1_455  S
O316        C317   1.281       .  A
C317        C832   1.468       .  S
O318       Cr327   1.989       .  S
O318        C326   1.250       .  A
O319       Cr327   1.947       .  S
O319        C320   1.270       .  A
C320        O321   1.282       .  A
C320        C496   1.461       .  S
O321       Cr328   2.021       .  S
O322       Cr328   1.991       .  S
O322        C323   1.263       .  A
C323        O324   1.267       .  A
C323        C892   1.506       .  S
O324       Cr329   1.998       .  S
O325       Cr329   2.031       .  S
O325        C326   1.258       .  A
C326        C436   1.509       .  S
Cr327       O330   1.775       .  S
Cr328       O330   1.778       .  S
Cr329       O330   1.774       .  S
O331       Cr349   2.018       .  S
O331        C339   1.282       .  A
O332       Cr349   1.989       .  S
O332        C333   1.262       .  A
C333        O334   1.265       .  A
C333        C856   1.502       .  S
O334       Cr350   1.992       .  S
O335       Cr350   2.018       .  S
O335        C336   1.256       .  A
C336        O337   1.248       .  A
C336        C424   1.497       .  S
O337       Cr351   1.989       .  S
O338       Cr351   1.935       .  S
O338        C339   1.267       .  A
C339        C448   1.454       .  S
O340       Cr349   2.032       .  S
O340        C348   1.258   1_556  A
O341       Cr349   2.001       .  S
O341        C342   1.267       .  A
C342        O343   1.265       .  A
C342        C577   1.507       .  S
O343       Cr350   1.992       .  S
O344       Cr350   2.013       .  S
O344        C345   1.280       .  A
C345        O346   1.270       .  A
C345        C637   1.461       .  S
O346       Cr351   1.934       .  S
O347       Cr351   1.984       .  S
O347        C348   1.249   1_556  A
C348        C412   1.513       .  S
Cr349       O352   1.776       .  S
Cr350       O352   1.772       .  S
Cr351       O352   1.771       .  S
O353       Cr371   2.010       .  S
O353        C361   1.277       .  A
O354       Cr371   1.992       .  S
O354        C355   1.265       .  A
C355        O356   1.265       .  A
C355        C544   1.504       .  S
O356       Cr372   1.998       .  S
O357       Cr372   2.014       .  S
O357        C358   1.258       .  A
C358        O359   1.252       .  A
C358        C400   1.494       .  S
O359       Cr373   1.990       .  S
O360       Cr373   1.937       .  S
O360        C361   1.265       .  A
C361        C913   1.458       .  S
O362       Cr371   2.032   1_455  S
O362        C370   1.261       .  A
O363       Cr371   1.998   1_455  S
O363        C364   1.265       .  A
C364        O365   1.263       .  A
C364        C736   1.506       .  S
O365       Cr372   1.989   1_455  S
O366       Cr372   2.014   1_455  S
O366        C367   1.278       .  A
C367        O368   1.266       .  A
C367        C592   1.467       .  S
O368       Cr373   1.936   1_455  S
O369       Cr373   1.990   1_455  S
O369        C370   1.253       .  A
C370        C409   1.503       .  S
Cr371       O374   1.775       .  S
Cr372       O374   1.775       .  S
Cr373       O374   1.776       .  S
O375       Cr393   2.009       .  S
O375        C383   1.273       .  A
O376       Cr393   1.981       .  S
O376        C377   1.262       .  A
C377        O378   1.269       .  A
C377        C508   1.503       .  S
O378       Cr394   2.018       .  S
O379       Cr394   2.007       .  S
O379        C380   1.262       .  A
C380        O381   1.259       .  A
C380        C421   1.494       .  S
O381       Cr395   2.004       .  S
O382       Cr395   1.946       .  S
O382        C383   1.262       .  A
C383        C460   1.463       .  S
O384       Cr393   2.005       .  S
O384        C392   1.260       .  A
O385       Cr393   2.007       .  S
O385        C386   1.267       .  A
C386        O387   1.258       .  A
C386        C784   1.499       .  S
O387       Cr394   1.975       .  S
O388       Cr394   2.012       .  S
O388        C389   1.273       .  A
C389        O390   1.259       .  A
C389        C880   1.471       .  S
O390       Cr395   1.943       .  S
O391       Cr395   2.002       .  S
O391        C392   1.258       .  A
C392        C397   1.491       .  S
Cr393       O396   1.778       .  S
Cr394       O396   1.779       .  S
Cr395       O396   1.779       .  S
C397        C398   1.408       .  A
C397        C402   1.410       .  A
C398        C399   1.410       .  A
C398        H403   1.083       .  S
C399        C400   1.413       .  A
C399        C406   1.443       .  S
C400        C401   1.408       .  A
C401        C402   1.407       .  A
C401        H404   1.085       .  S
C402        C405   1.444       .  S
C405        N407   1.157       .  T
C406        N408   1.157       .  T
C409        C410   1.403       .  A
C409        C414   1.416       .  A
C410        C411   1.398       .  A
C410        H415   1.086   1_455  S
C411        C412   1.422       .  A
C411        C418   1.446       .  S
C412        C413   1.415       .  A
C413        C414   1.423       .  A
C413        H416   1.084       .  S
C414        C417   1.442       .  S
C417        N419   1.157       .  T
C418        N420   1.157   1_455  T
C421        C422   1.408   1_655  A
C421        C426   1.412       .  A
C422        C423   1.411       .  A
C422        H427   1.085       .  S
C423        C424   1.413       .  A
C423        C430   1.443       .  S
C424        C425   1.409   1_455  A
C425        C426   1.409       .  A
C425        H428   1.085       .  S
C426        C429   1.444       .  S
C429        N431   1.157       .  T
C430        N432   1.157       .  T
C433        C434   1.407       .  A
C433        C438   1.419       .  A
C434        C435   1.401       .  A
C434        H439   1.085       .  S
C435        C436   1.418       .  A
C435        C442   1.446   1_655  S
C436        C437   1.412       .  A
C437        C438   1.423       .  A
C437        H440   1.084       .  S
C438        C441   1.442       .  S
C441        N443   1.157       .  T
C442        N444   1.157       .  T
C445        C446   1.398   1_554  A
C445        C450   1.414       .  A
C446        C447   1.389   1_655  A
C446        H451   1.085       .  S
C447        C448   1.412       .  A
C447        C454   1.445       .  S
C448        C449   1.397   1_556  A
C449        C450   1.389   1_455  A
C449        H452   1.085       .  S
C450        C453   1.444       .  S
C453        N455   1.157       .  T
C454        N456   1.157       .  T
C457        C458   1.403       .  A
C457        C462   1.411   1_455  A
C458        C459   1.393       .  A
C458        H463   1.085       .  S
C459        C460   1.410   1_455  A
C459        C466   1.445       .  S
C460        C461   1.402       .  A
C461        C462   1.392       .  A
C461        H464   1.085       .  S
C462        C465   1.445       .  S
C465        N467   1.157       .  T
C466        N468   1.157       .  T
C469        C470   1.404       .  A
C469        C474   1.417       .  A
C470        C471   1.409       .  A
C470        H475   1.085       .  S
C471        C472   1.417       .  A
C471        C478   1.444       .  S
C472        C473   1.404       .  A
C473        C474   1.410       .  A
C473        H476   1.085       .  S
C474        C477   1.444       .  S
C477        N479   1.157       .  T
C478        N480   1.157       .  T
C481        C482   1.408   1_455  A
C481        C486   1.411       .  A
C482        C483   1.408       .  A
C482        H487   1.085       .  S
C483        C484   1.410       .  A
C483        C490   1.443       .  S
C484        C485   1.409   1_655  A
C485        C486   1.409       .  A
C485        H488   1.085       .  S
C486        C489   1.444       .  S
C489        N491   1.157       .  T
C490        N492   1.157       .  T
C493        C494   1.404       .  A
C493        C498   1.409       .  A
C494        C495   1.394       .  A
C494        H499   1.085       .  S
C495        C496   1.407       .  A
C495        C502   1.445       .  S
C496        C497   1.403       .  A
C497        C498   1.393       .  A
C497        H500   1.085       .  S
C498        C501   1.445       .  S
C501        N503   1.157       .  T
C502        N504   1.157       .  T
C505        C506   1.412       .  A
C505        C510   1.419       .  A
C506        C507   1.409       .  A
C506        H511   1.084       .  S
C507        C508   1.414       .  A
C507        C514   1.443       .  S
C508        C509   1.409       .  A
C509        C510   1.406       .  A
C509        H512   1.085       .  S
C510        C513   1.444       .  S
C513        N515   1.157       .  T
C514        N516   1.157       .  T
C517        C518   1.399       .  A
C517        C522   1.408       .  A
C518        C519   1.390       .  A
C518        H523   1.085       .  S
C519        C520   1.410       .  A
C519        C526   1.445       .  S
C520        C521   1.400       .  A
C521        C522   1.391       .  A
C521        H524   1.085       .  S
C522        C525   1.445       .  S
C525        N527   1.157       .  T
C526        N528   1.157       .  T
C529        C530   1.400       .  A
C529        C534   1.415       .  A
C530        C531   1.406       .  A
C530        H535   1.085       .  S
C531        C532   1.422       .  A
C531        C538   1.445       .  S
C532        C533   1.407       .  A
C533        C534   1.414       .  A
C533        H536   1.084       .  S
C534        C537   1.442       .  S
C537        N539   1.157       .  T
C538        N540   1.157       .  T
C541        C542   1.410       .  A
C541        C546   1.419       .  A
C542        C543   1.407       .  A
C542        H547   1.084       .  S
C543        C544   1.417       .  A
C543        C550   1.444       .  S
C544        C545   1.409       .  A
C545        C546   1.405       .  A
C545        H548   1.084       .  S
C546        C549   1.444       .  S
C549        N551   1.157       .  T
C550        N552   1.157       .  T
C553        C554   1.403       .  A
C553        C558   1.418       .  A
C554        C555   1.409       .  A
C554        H559   1.085       .  S
C555        C556   1.418       .  A
C555        C562   1.443   1_554  S
C556        C557   1.405       .  A
C557        C558   1.412       .  A
C557        H560   1.084       .  S
C558        C561   1.444       .  S
C561        N563   1.157       .  T
C562        N564   1.157       .  T
C565        C566   1.404       .  A
C565        C570   1.418   1_545  A
C566        C567   1.410       .  A
C566        H571   1.085       .  S
C567        C568   1.418   1_545  A
C567        C574   1.444       .  S
C568        C569   1.405       .  A
C569        C570   1.412       .  A
C569        H572   1.085       .  S
C570        C573   1.444       .  S
C573        N575   1.157       .  T
C574        N576   1.157       .  T
C577        C578   1.411       .  A
C577        C582   1.417       .  A
C578        C579   1.406       .  A
C578        H583   1.084       .  S
C579        C580   1.418       .  A
C579        C586   1.444       .  S
C580        C581   1.411       .  A
C581        C582   1.409       .  A
C581        H584   1.084       .  S
C582        C585   1.443       .  S
C585        N587   1.157   1_556  T
C586        N588   1.157       .  T
C589        C590   1.404       .  A
C589        C594   1.411       .  A
C590        C591   1.388       .  A
C590        H595   1.081       .  S
C591        C592   1.411       .  A
C591        C598   1.446       .  S
C592        C593   1.406       .  A
C593        C594   1.392       .  A
C593        H596   1.085       .  S
C594        C597   1.445       .  S
C597        N599   1.157       .  T
C598        N600   1.157       .  T
C601        C602   1.398       .  A
C601        C606   1.411       .  A
C602        C603   1.391   1_545  A
C602        H607   1.085       .  S
C603        C604   1.411       .  A
C603        C610   1.445       .  S
C604        C605   1.397       .  A
C605        C606   1.391   1_565  A
C605        H608   1.085       .  S
C606        C609   1.445       .  S
C609        N611   1.157       .  T
C610        N612   1.157       .  T
C613        C614   1.409       .  A
C613        C618   1.415       .  A
C614        C615   1.404       .  A
C614        H619   1.084       .  S
C615        C616   1.416       .  A
C615        C622   1.444       .  S
C616        C617   1.409       .  A
C617        C618   1.402       .  A
C617        H620   1.084       .  S
C618        C621   1.445       .  S
C621        N623   1.157       .  T
C622        N624   1.157       .  T
C625        C626   1.404       .  A
C625        C630   1.417       .  A
C626        C627   1.411       .  A
C626        H631   1.085       .  S
C627        C628   1.419       .  A
C627        C634   1.442       .  S
C628        C629   1.403       .  A
C629        C630   1.410       .  A
C629        H632   1.085       .  S
C630        C633   1.440       .  S
C633        N635   1.156       .  T
C634        N636   1.157       .  T
C637        C638   1.403       .  A
C637        C642   1.411       .  A
C638        C639   1.388       .  A
C638        H643   1.085       .  S
C639        C640   1.409       .  A
C639        C646   1.444       .  S
C640        C641   1.400       .  A
C641        C642   1.388       .  A
C641        H644   1.083       .  S
C642        C645   1.445       .  S
C645        N647   1.157       .  T
C646        N648   1.157       .  T
C649        C650   1.407       .  A
C649        C654   1.420       .  A
C650        C651   1.404       .  A
C650        H655   1.085       .  S
C651        C652   1.422       .  A
C651        C658   1.445       .  S
C652        C653   1.410       .  A
C653        C654   1.411       .  A
C653        H656   1.084       .  S
C654        C657   1.444       .  S
C657        N659   1.158       .  T
C658        N660   1.157       .  T
C661        C662   1.407   1_565  A
C661        C666   1.408   1_556  A
C662        C663   1.394       .  A
C662        H667   1.085   1_545  S
C663        C664   1.409   1_556  A
C663        C670   1.445       .  S
C664        C665   1.405       .  A
C665        C666   1.389   1_545  A
C665        H668   1.085       .  S
C666        C669   1.445       .  S
C669        N671   1.157       .  T
C670        N672   1.157       .  T
C673        C674   1.405       .  A
C673        C678   1.415       .  A
C674        C675   1.411       .  A
C674        H679   1.085       .  S
C675        C676   1.419       .  A
C675        C682   1.444       .  S
C676        C677   1.405       .  A
C677        C678   1.412       .  A
C677        H680   1.084       .  S
C678        C681   1.441       .  S
C681        N683   1.156   1_556  T
C682        N684   1.157       .  T
C685        C686   1.404       .  A
C685        C690   1.416   1_565  A
C686        C687   1.410       .  A
C686        H691   1.085       .  S
C687        C688   1.417   1_565  A
C687        C694   1.444       .  S
C688        C689   1.403       .  A
C689        C690   1.408       .  A
C689        H692   1.085       .  S
C690        C693   1.444       .  S
C693        N695   1.157       .  T
C694        N696   1.157       .  T
C697        C698   1.407       .  A
C697        C702   1.421       .  A
C698        C699   1.408       .  A
C698        H703   1.085       .  S
C699        C700   1.422       .  A
C699        C706   1.445       .  S
C700        C701   1.407       .  A
C701        C702   1.407       .  A
C701        H704   1.084       .  S
C702        C705   1.444   1_554  S
C705        N707   1.157       .  T
C706        N708   1.158       .  T
C709        C710   1.401       .  A
C709        C714   1.408       .  A
C710        C711   1.390       .  A
C710        H715   1.085       .  S
C711        C712   1.410       .  A
C711        C718   1.445       .  S
C712        C713   1.403       .  A
C713        C714   1.393       .  A
C713        H716   1.085       .  S
C714        C717   1.445       .  S
C717        N719   1.157       .  T
C718        N720   1.157       .  T
C721        C722   1.404       .  A
C721        C726   1.407       .  A
C722        C723   1.392       .  A
C722        H727   1.085       .  S
C723        C724   1.406       .  A
C723        C730   1.444       .  S
C724        C725   1.404       .  A
C725        C726   1.391       .  A
C725        H728   1.085       .  S
C726        C729   1.445       .  S
C729        N731   1.157       .  T
C730        N732   1.157       .  T
C733        C734   1.409       .  A
C733        C738   1.415       .  A
C734        C735   1.405   1_545  A
C734        H739   1.085       .  S
C735        C736   1.418       .  A
C735        C742   1.444       .  S
C736        C737   1.412       .  A
C737        C738   1.407   1_565  A
C737        H740   1.084       .  S
C738        C741   1.444       .  S
C741        N743   1.157       .  T
C742        N744   1.157       .  T
C745        C746   1.408       .  A
C745        C750   1.422       .  A
C746        C747   1.406   1_655  A
C746        H751   1.084       .  S
C747        C748   1.420       .  A
C747        C754   1.445       .  S
C748        C749   1.406       .  A
C749        C750   1.408   1_455  A
C749        H752   1.085       .  S
C750        C753   1.444       .  S
C753        N755   1.157       .  T
C754        N756   1.158       .  T
C757        C758   1.406       .  A
C757        C762   1.409       .  A
C758        C759   1.389       .  A
C758        H763   1.085       .  S
C759        C760   1.410       .  A
C759        C766   1.445       .  S
C760        C761   1.407       .  A
C761        C762   1.388       .  A
C761        H764   1.085       .  S
C762        C765   1.446       .  S
C765        N767   1.157       .  T
C766        N768   1.157       .  T
C769        C770   1.408       .  A
C769        C774   1.410       .  A
C770        C771   1.410       .  A
C770        H775   1.085       .  S
C771        C772   1.413       .  A
C771        C778   1.443       .  S
C772        C773   1.407       .  A
C773        C774   1.405       .  A
C773        H776   1.085       .  S
C774        C777   1.443       .  S
C777        N779   1.157       .  T
C778        N780   1.157       .  T
C781        C782   1.405       .  A
C781        C786   1.422       .  A
C782        C783   1.403       .  A
C782        H787   1.085       .  S
C783        C784   1.420       .  A
C783        C790   1.444       .  S
C784        C785   1.405       .  A
C785        C786   1.404       .  A
C785        H788   1.085       .  S
C786        C789   1.445       .  S
C789        N791   1.158       .  T
C790        N792   1.157       .  T
C793        C794   1.410       .  A
C793        C798   1.418       .  A
C794        C795   1.407       .  A
C794        H799   1.084       .  S
C795        C796   1.419       .  A
C795        C802   1.444       .  S
C796        C797   1.411       .  A
C797        C798   1.410       .  A
C797        H800   1.084       .  S
C798        C801   1.444       .  S
C801        N803   1.157       .  T
C802        N804   1.157       .  T
C805        C806   1.413       .  A
C805        C810   1.418       .  A
C806        C807   1.424       .  A
C806        H811   1.084       .  S
C807        C808   1.419       .  A
C807        C814   1.442       .  S
C808        C809   1.405       .  A
C809        C810   1.397       .  A
C809        H812   1.085       .  S
C810        C813   1.447       .  S
C813        N815   1.157       .  T
C814        N816   1.157       .  T
C817        C818   1.404       .  A
C817        C822   1.417       .  A
C818        C819   1.408       .  A
C818        H823   1.085       .  S
C819        C820   1.416       .  A
C819        C826   1.444   1_554  S
C820        C821   1.404       .  A
C821        C822   1.409       .  A
C821        H824   1.085       .  S
C822        C825   1.444       .  S
C825        N827   1.157       .  T
C826        N828   1.157       .  T
C829        C830   1.405       .  A
C829        C834   1.411       .  A
C830        C831   1.391       .  A
C830        H835   1.085       .  S
C831        C832   1.411       .  A
C831        C838   1.445       .  S
C832        C833   1.405       .  A
C833        C834   1.391       .  A
C833        H836   1.085       .  S
C834        C837   1.445       .  S
C837        N839   1.157       .  T
C838        N840   1.157       .  T
C841        C842   1.411       .  A
C841        C846   1.416       .  A
C842        C843   1.406       .  A
C842        H847   1.084       .  S
C843        C844   1.417       .  A
C843        C850   1.444   1_556  S
C844        C845   1.411       .  A
C845        C846   1.408       .  A
C845        H848   1.084       .  S
C846        C849   1.444       .  S
C849        N851   1.157       .  T
C850        N852   1.157       .  T
C853        C854   1.407       .  A
C853        C858   1.419       .  A
C854        C855   1.404       .  A
C854        H859   1.084       .  S
C855        C856   1.421       .  A
C855        C862   1.445   1_556  S
C856        C857   1.407       .  A
C857        C858   1.405       .  A
C857        H860   1.084       .  S
C858        C861   1.444       .  S
C861        N863   1.157       .  T
C862        N864   1.158       .  T
C865        C866   1.398       .  A
C865        C870   1.411       .  A
C866        C867   1.391       .  A
C866        H871   1.085       .  S
C867        C868   1.411       .  A
C867        C874   1.445       .  S
C868        C869   1.397       .  A
C869        C870   1.389       .  A
C869        H872   1.085       .  S
C870        C873   1.445       .  S
C873        N875   1.157       .  T
C874        N876   1.157       .  T
C877        C878   1.402       .  A
C877        C882   1.415       .  A
C878        C879   1.391       .  A
C878        H883   1.085       .  S
C879        C880   1.414       .  A
C879        C886   1.445       .  S
C880        C881   1.403       .  A
C881        C882   1.394       .  A
C881        H884   1.085       .  S
C882        C885   1.446       .  S
C885        N887   1.158       .  T
C886        N888   1.157       .  T
C889        C890   1.406       .  A
C889        C894   1.422       .  A
C890        C891   1.409   1_565  A
C890        H895   1.085       .  S
C891        C892   1.422       .  A
C891        C898   1.444       .  S
C892        C893   1.406       .  A
C893        C894   1.404   1_545  A
C893        H896   1.085       .  S
C894        C897   1.445       .  S
C897        N899   1.157       .  T
C898        N900   1.157       .  T
C901        C902   1.412       .  A
C901        C906   1.418       .  A
C902        C903   1.410   1_655  A
C902        H907   1.084       .  S
C903        C904   1.416       .  A
C903        C910   1.444       .  S
C904        C905   1.408       .  A
C905        C906   1.403   1_455  A
C905        H908   1.084       .  S
C906        C909   1.445       .  S
C909        N911   1.157       .  T
C910        N912   1.157       .  T
C913        C914   1.404       .  A
C913        C918   1.408       .  A
C914        C915   1.390       .  A
C914        H919   1.085       .  S
C915        C916   1.407       .  A
C915        C922   1.444       .  S
C916        C917   1.404       .  A
C917        C918   1.388       .  A
C917        H920   1.086       .  S
C918        C921   1.446       .  S
C921        N923   1.157       .  T
C922        N924   1.157       .  T
C925        C926   1.410       .  A
C925        C930   1.417       .  A
C926        C927   1.407       .  A
C926        H931   1.085       .  S
C927        C928   1.410       .  A
C927        C934   1.444       .  S
C928        C929   1.408       .  A
C929        C930   1.414       .  A
C929        H932   1.085       .  S
C930        C933   1.443       .  S
C933        N935   1.157       .  T
C934        N936   1.157       .  T
C937        C938   1.402   1_556  A
C937        C942   1.414       .  A
C938        C939   1.388       .  A
C938        H943   1.085       .  S
C939        C940   1.412       .  A
C939        C946   1.446       .  S
C940        C941   1.401   1_554  A
C941        C942   1.391       .  A
C941        H944   1.085       .  S
C942        C945   1.445       .  S
C945        N947   1.157       .  T
C946        N948   1.157       .  T
C949        C950   1.407       .  A
C949        C954   1.422       .  A
C950        C951   1.404       .  A
C950        H955   1.085       .  S
C951        C952   1.421       .  A
C951        C958   1.445       .  S
C952        C953   1.408       .  A
C953        C954   1.411       .  A
C953        H956   1.084       .  S
C954        C957   1.444       .  S
C957        N959   1.158       .  T
C958        N960   1.157   1_554  T
C961        C962   1.407       .  A
C961        C966   1.422       .  A
C962        C963   1.409       .  A
C962        H967   1.085       .  S
C963        C964   1.423       .  A
C963        C970   1.444       .  S
C964        C965   1.407       .  A
C965        C966   1.407       .  A
C965        H968   1.084       .  S
C966        C969   1.444   1_554  S
C969        N971   1.157       .  T
C970        N972   1.158       .  T
C973        C974   1.410       .  A
C973        C978   1.414       .  A
C974        C975   1.412       .  A
C974        H979   1.085       .  S
C975        C976   1.413       .  A
C975        C982   1.443       .  S
C976        C977   1.409       .  A
C977        C978   1.412       .  A
C977        H980   1.084       .  S
C978        C981   1.443       .  S
C981        N983   1.157       .  T
C982        N984   1.157       .  T
C985        C986   1.408       .  A
C985        C990   1.413       .  A
C986        C987   1.410       .  A
C986        H991   1.085       .  S
C987        C988   1.413       .  A
C987        C994   1.443       .  S
C988        C989   1.409       .  A
C989        C990   1.411       .  A
C989        H992   1.085       .  S
C990        C993   1.443       .  S
C993        N995   1.157       .  T
C994        N996   1.157       .  T
C997        C998   1.404       .  A
C997       C1002   1.407       .  A
C998        C999   1.387       .  A
C998       H1003   1.085       .  S
C999       C1000   1.408       .  A
C999       C1006   1.445       .  S
C1000      C1001   1.406       .  A
C1001      C1002   1.391       .  A
C1001      H1004   1.085       .  S
C1002      C1005   1.445       .  S
C1005      N1007   1.157       .  T
C1006      N1008   1.157       .  T
C1009      C1010   1.404       .  A
C1009      C1014   1.407       .  A
C1010      C1011   1.390       .  A
C1010      H1015   1.086       .  S
C1011      C1012   1.405       .  A
C1011      C1018   1.445       .  S
C1012      C1013   1.404       .  A
C1013      C1014   1.392       .  A
C1013      H1016   1.086       .  S
C1014      C1017   1.445       .  S
C1017      N1019   1.157       .  T
C1018      N1020   1.157       .  T
C1021      C1022   1.406       .  A
C1021      C1026   1.423       .  A
C1022      C1023   1.406       .  A
C1022      H1027   1.085       .  S
C1023      C1024   1.422       .  A
C1023      C1030   1.445       .  S
C1024      C1025   1.407       .  A
C1025      C1026   1.409       .  A
C1025      H1028   1.085       .  S
C1026      C1029   1.444       .  S
C1029      N1031   1.158       .  T
C1030      N1032   1.157       .  T
C1033      C1034   1.411       .  A
C1033      C1038   1.417       .  A
C1034      C1035   1.407       .  A
C1034      H1039   1.084       .  S
C1035      C1036   1.415       .  A
C1035      C1042   1.444       .  S
C1036      C1037   1.408       .  A
C1037      C1038   1.403       .  A
C1037      H1040   1.085       .  S
C1038      C1041   1.444       .  S
C1041      N1043   1.157       .  T
C1042      N1044   1.157       .  T
