geometry optimzed in LAMMPS
_audit_creation_date              2020-12-01 
_audit_creation_method            'lammps2cif' 
_symmetry_space_group_name_H-M    'P1' 
_symmetry_Int_Tables_number       1 
_symmetry_cell_setting            triclinic 
loop_ 
_symmetry_equiv_pos_as_xyz 
  x,y,z 
_cell_length_a                    38.91804015 
_cell_length_b                    38.96317617664542 
_cell_length_c                    33.8311233643934 
_cell_angle_alpha                 89.51720302584329 
_cell_angle_beta                  89.96842778662436 
_cell_angle_gamma                 90.62262452713041 
loop_ 
_atom_site_label 
_atom_site_type_symbol 
_atom_site_fract_x 
_atom_site_fract_y 
_atom_site_fract_z 
_atom_site_charge 
N1          N  0.37729300  0.83855874  0.03707061    -0.36400
N2          N  0.37405339  0.84004149  0.95201151    -0.57000
N3          N  0.37455999  0.91575940  0.95385278    -0.36400
N4          N  0.38162107  0.91394307  0.03858408    -0.57000
C5          C  0.38417664  0.80543981  0.02817178     0.27100
C6          C  0.38989914  0.84447845  0.07373098     0.27100
C7          C  0.38008150  0.91011156  0.91495183     0.27100
C8          C  0.38201642  0.94925835  0.96079376     0.27100
C9          C  0.36486604  0.80678252  0.95845765     0.35800
C10         C  0.36557023  0.84762472  0.91417161     0.35800
C11         C  0.37968336  0.90722830  0.07779546     0.35800
C12         C  0.37608656  0.94799223  0.03400319     0.35800
C13         C  0.40212902  0.79063816  0.05936965    -0.21700
C14         C  0.40520447  0.81508253  0.08824694    -0.21700
C15         C  0.39104055  0.94038110  0.89689065    -0.21700
C16         C  0.39185964  0.96512636  0.92563614    -0.21700
C17         C  0.34983709  0.79355176  0.92449183    -0.22800
C18         C  0.35083941  0.81922505  0.89637712    -0.22800
C19         C  0.37334138  0.93713680  0.09828293    -0.22800
C20         C  0.37126194  0.96297337  0.07061075    -0.22800
C21         C  0.37277589  0.78807146  0.99361330    -0.18100
C22         C  0.38590915  0.87495010  0.09555796    -0.18100
C23         C  0.37820774  0.96609532  0.99756771    -0.18100
C24         C  0.37284597  0.87916968  0.89472891    -0.18100
H25         H  0.41249885  0.76506009  0.06137483     0.14800
H26         H  0.41756713  0.81170160  0.11664915     0.14800
H27         H  0.39707999  0.94448057  0.86596481     0.14800
H28         H  0.39867830  0.99179337  0.92077605     0.14800
H29         H  0.33898495  0.76825767  0.91994202     0.13100
H30         H  0.34147459  0.81732843  0.86634097     0.13100
H31         H  0.37107429  0.94018975  0.12993963     0.13100
H32         H  0.36734356  0.98979820  0.07699909     0.13100
H33         H  0.36131176  0.85489687  0.02118432     0.26300
H34         H  0.36270291  0.89869532  0.97343130     0.26300
N35         N  0.37983038  0.84211325  0.45489687    -0.36400
N36         N  0.37715845  0.84528620  0.54025986    -0.57000
N37         N  0.38468389  0.92079060  0.53514035    -0.36400
N38         N  0.38353772  0.91741934  0.44970876    -0.57000
C39         C  0.36658872  0.81069488  0.46438641     0.27100
C40         C  0.37214029  0.84834765  0.41643550     0.27100
C41         C  0.38064366  0.91656206  0.57464561     0.27100
C42         C  0.38019760  0.95456819  0.52660759     0.27100
C43         C  0.38066952  0.81088625  0.53589007     0.35800
C44         C  0.38562863  0.85256491  0.57812313     0.35800
C45         C  0.38892486  0.90990931  0.41129443     0.35800
C46         C  0.38792274  0.95175859  0.45322889     0.35800
C47         C  0.34953723  0.79756961  0.43160884    -0.21700
C48         C  0.35370733  0.82092680  0.40129408    -0.21700
C49         C  0.37456142  0.94812412  0.59171158    -0.21700
C50         C  0.37440488  0.97203125  0.56158888    -0.21700
C51         C  0.39181786  0.79653683  0.57133098    -0.22800
C52         C  0.39446049  0.82277546  0.59800266    -0.22800
C53         C  0.39691172  0.93955422  0.39020314    -0.22800
C54         C  0.39571677  0.96609720  0.41655660    -0.22800
C55         C  0.37205344  0.79270335  0.50074768    -0.18100
C56         C  0.38230035  0.87759744  0.39413004    -0.18100
C57         C  0.38287389  0.97043663  0.48858059    -0.18100
C58         C  0.38352520  0.88524748  0.59600550    -0.18100
H59         H  0.33509740  0.77380953  0.42940373     0.14800
H60         H  0.34368569  0.81829548  0.37162507     0.14800
H61         H  0.37088396  0.95350925  0.62275083     0.14800
H62         H  0.37095982  0.99929574  0.56545410     0.14800
H63         H  0.39817789  0.77021910  0.57791551     0.13100
H64         H  0.40239321  0.82024728  0.62854776     0.13100
H65         H  0.40157057  0.94205164  0.35875832     0.13100
H66         H  0.39958066  0.99287463  0.40904664     0.13100
H67         H  0.39665101  0.85670514  0.47201445     0.26300
H68         H  0.39266680  0.90192039  0.51589612     0.26300
N69         N  0.37618625  0.35243922  0.04652458    -0.36400
N70         N  0.37665723  0.27804606  0.04901656    -0.57000
N71         N  0.38788218  0.27710090  0.96435738    -0.36400
N72         N  0.38441913  0.35148125  0.96176345    -0.57000
C73         C  0.36353557  0.34532401  0.08292656     0.27100
C74         C  0.36469355  0.38387402  0.03586733     0.27100
C75         C  0.37731930  0.24434223  0.97118809     0.27100
C76         C  0.38424596  0.28352834  0.92520582     0.27100
C77         C  0.38108023  0.28482048  0.08785302     0.35800
C78         C  0.38426129  0.24455924  0.04400694     0.35800
C79         C  0.39021709  0.38501853  0.96934348     0.35800
C80         C  0.39967562  0.34501610  0.92682979     0.35800
C81         C  0.34340070  0.37222663  0.09548586    -0.21700
C82         C  0.34378478  0.39642418  0.06559572    -0.21700
C83         C  0.36701038  0.22976864  0.93574247    -0.21700
C84         C  0.37095578  0.25461507  0.90687984    -0.21700
C85         C  0.39208549  0.25560432  0.10752024    -0.22800
C86         C  0.39339738  0.22994947  0.07994857    -0.22800
C87         C  0.40999574  0.39980435  0.93948534    -0.22800
C88         C  0.41602596  0.37436260  0.91251301    -0.22800
C89         C  0.37180310  0.31608880  0.10586162    -0.18100
C90         C  0.37549509  0.40228608  0.00164780    -0.18100
C91         C  0.39476600  0.31423676  0.90576221    -0.18100
C92         C  0.37995286  0.22677556  0.00796352    -0.18100
H93         H  0.32984405  0.37418777  0.12330334     0.14800
H94         H  0.33031095  0.42055200  0.06606293     0.14800
H95         H  0.35805102  0.20383114  0.93068925     0.14800
H96         H  0.36508856  0.25145135  0.87586165     0.14800
H97         H  0.39777671  0.25267699  0.13864640     0.13100
H98         H  0.39999676  0.20356656  0.08607344     0.13100
H99         H  0.41919287  0.42604498  0.93721470     0.13100
H100        H  0.43017015  0.37727550  0.88510653     0.13100
H101        H  0.39507981  0.33847288  0.03213193     0.26300
H102        H  0.40063325  0.29292630  0.98434937     0.26300
N103        N  0.37738341  0.35526450  0.46446583    -0.36400
N104        N  0.38223094  0.35438060  0.54942120    -0.57000
N105        N  0.39385882  0.27963407  0.54770058    -0.36400
N106        N  0.38449290  0.28100677  0.46298720    -0.57000
C107        C  0.36345507  0.38589179  0.47374243     0.27100
C108        C  0.36660679  0.34734148  0.42761689     0.27100
C109        C  0.38950047  0.28499034  0.58678275     0.27100
C110        C  0.38729516  0.24591723  0.54104294     0.27100
C111        C  0.38451505  0.38869564  0.54253979     0.35800
C112        C  0.39491278  0.34873066  0.58611496     0.35800
C113        C  0.38837857  0.28810582  0.42409077     0.35800
C114        C  0.39339057  0.24786387  0.46814252     0.35800
C115        C  0.34288911  0.39690965  0.44266356    -0.21700
C116        C  0.34536943  0.37285009  0.41334584    -0.21700
C117        C  0.38087089  0.25423212  0.60541600    -0.21700
C118        C  0.37929758  0.22961519  0.57651981    -0.21700
C119        C  0.39923643  0.40467982  0.57507509    -0.22800
C120        C  0.40540126  0.37944087  0.60270726    -0.22800
C121        C  0.40029493  0.25950360  0.40447662    -0.22800
C122        C  0.40329430  0.23388250  0.43243713    -0.22800
C123        C  0.37169762  0.40523645  0.50790275    -0.18100
C124        C  0.37714970  0.31863954  0.40577578    -0.18100
C125        C  0.38948405  0.22939944  0.50397349    -0.18100
C126        C  0.39432530  0.31669099  0.60616453    -0.18100
H127        H  0.32760040  0.41988559  0.44096640     0.14800
H128        H  0.33281510  0.37390914  0.38482746     0.14800
H129        H  0.37592038  0.24997066  0.63656751     0.14800
H130        H  0.37297820  0.20277587  0.58120492     0.14800
H131        H  0.40553879  0.43149965  0.57892679     0.13100
H132        H  0.41645828  0.38323090  0.63172351     0.13100
H133        H  0.40506616  0.25698507  0.37312940     0.13100
H134        H  0.41125104  0.20780237  0.42705426     0.13100
H135        H  0.39659187  0.34260546  0.48009496     0.26300
H136        H  0.40362210  0.29754733  0.52756378     0.26300
N137        N  0.70281805  0.67301010  0.04866777    -0.36400
N138        N  0.70535904  0.66769884  0.96327526    -0.57000
N139        N  0.78018945  0.66012865  0.96723220    -0.36400
N140        N  0.77787374  0.66892588  0.05231182    -0.57000
C141        C  0.67150135  0.68518209  0.03835906     0.27100
C142        C  0.70965131  0.68425980  0.08562799     0.27100
C143        C  0.77561855  0.66288244  0.92761599     0.27100
C144        C  0.81409885  0.66530855  0.97473864     0.27100
C145        C  0.67101038  0.66443503  0.96926196     0.35800
C146        C  0.71180368  0.65605701  0.92640351     0.35800
C147        C  0.77052621  0.66653155  0.09130931     0.35800
C148        C  0.81157939  0.66149212  0.04840754     0.35800
C149        C  0.65880906  0.70488701  0.06903203    -0.21700
C150        C  0.68264001  0.70387099  0.09897038    -0.21700
C151        C  0.80713541  0.66897322  0.90961466    -0.21700
C152        C  0.83133247  0.67045860  0.93921542    -0.21700
C153        C  0.65581943  0.64995009  0.93610560    -0.22800
C154        C  0.68147306  0.64529533  0.90885961    -0.22800
C155        C  0.79962199  0.65730352  0.11228740    -0.22800
C156        C  0.82572374  0.65467521  0.08523812    -0.22800
C157        C  0.65340390  0.67688461  0.00312316    -0.18100
C158        C  0.73888392  0.67596825  0.10842746    -0.18100
C159        C  0.83020105  0.66336174  0.01243461    -0.18100
C160        C  0.74414353  0.65788660  0.90714321    -0.18100
H161        H  0.63502545  0.71894199  0.06997651     0.14800
H162        H  0.68051916  0.71650063  0.12723158     0.14800
H163        H  0.81238169  0.67152864  0.87831262     0.14800
H164        H  0.85862786  0.67430110  0.93476224     0.14800
H165        H  0.62916450  0.64306581  0.93152689     0.13100
H166        H  0.67804466  0.63505952  0.87948495     0.13100
H167        H  0.80213587  0.65376841  0.14390553     0.13100
H168        H  0.85213548  0.64881447  0.09221987     0.13100
H169        H  0.71693661  0.65482082  0.03342333     0.26300
H170        H  0.76170875  0.65187444  0.98740495     0.26300
N171        N  0.69900655  0.66439960  0.54971551    -0.36400
N172        N  0.69993065  0.67452661  0.46471572    -0.57000
N173        N  0.77427209  0.66345740  0.46385728    -0.36400
N174        N  0.77395767  0.65699323  0.54860792    -0.57000
C175        C  0.66812468  0.67931303  0.54312676     0.27100
C176        C  0.70756898  0.66974066  0.58800118     0.27100
C177        C  0.76861078  0.67565241  0.42693262     0.27100
C178        C  0.80818586  0.66749027  0.47163025     0.27100
C179        C  0.66617710  0.66819848  0.47155174     0.35800
C180        C  0.70568926  0.66671521  0.42641821     0.35800
C181        C  0.76647993  0.64632331  0.58577774     0.35800
C182        C  0.80616840  0.64620745  0.54069357     0.35800
C183        C  0.65724428  0.69473774  0.57775725    -0.21700
C184        C  0.68198001  0.68845089  0.60606162    -0.21700
C185        C  0.79927688  0.68750833  0.41076811    -0.21700
C186        C  0.82421170  0.68275270  0.43916835    -0.21700
C187        C  0.65083787  0.65539363  0.43755721    -0.22800
C188        C  0.67568746  0.65516306  0.40884319    -0.22800
C189        C  0.79379814  0.62811205  0.60134024    -0.22800
C190        C  0.81893876  0.62799032  0.57273270    -0.22800
C191        C  0.64914745  0.67680809  0.50721621    -0.18100
C192        C  0.73715353  0.65663344  0.60718100    -0.18100
C193        C  0.82496809  0.65540380  0.50622595    -0.18100
C194        C  0.73707703  0.67272901  0.40658192    -0.18100
H195        H  0.63418452  0.70936839  0.58246201     0.14800
H196        H  0.68127419  0.69689735  0.63644177     0.14800
H197        H  0.80341158  0.69798761  0.38140719     0.14800
H198        H  0.85115460  0.68928060  0.43586940     0.14800
H199        H  0.62467956  0.64655014  0.43346440     0.13100
H200        H  0.67200552  0.64711363  0.37860640     0.13100
H201        H  0.79567076  0.61674806  0.63055417     0.13100
H202        H  0.84393162  0.61629960  0.57545192     0.13100
H203        H  0.71186964  0.64830483  0.53035678     0.26300
H204        H  0.75666942  0.64932050  0.48070086     0.26300
N205        N  0.21691876  0.65860506  0.04294760    -0.36400
N206        N  0.21496198  0.66091040  0.95748652    -0.57000
N207        N  0.14012552  0.65083558  0.95932310    -0.36400
N208        N  0.14196685  0.65330960  0.04458053    -0.57000
C209        C  0.24781198  0.67340729  0.03431716     0.27100
C210        C  0.20953224  0.66594364  0.08103780     0.27100
C211        C  0.14602035  0.65848896  0.92081992     0.27100
C212        C  0.10697894  0.65867657  0.96721107     0.27100
C213        C  0.24900277  0.65696039  0.96411564     0.35800
C214        C  0.20874640  0.64886562  0.92079878     0.35800
C215        C  0.14888453  0.64590165  0.08282281     0.35800
C216        C  0.10827634  0.64595872  0.03903480     0.35800
C217        C  0.25968941  0.69076248  0.06745636    -0.21700
C218        C  0.23586755  0.68550919  0.09699994    -0.21700
C219        C  0.11624366  0.67112069  0.90386175    -0.21700
C220        C  0.09163070  0.67133583  0.93316836    -0.21700
C221        C  0.26423927  0.64159125  0.93177287    -0.22800
C222        C  0.23873332  0.63652655  0.90435627    -0.22800
C223        C  0.11957526  0.63323440  0.10147282    -0.22800
C224        C  0.09377760  0.63352028  0.07377273    -0.22800
C225        C  0.26620365  0.66908126  0.99826323    -0.18100
C226        C  0.17998240  0.65469310  0.10201680    -0.18100
C227        C  0.09001538  0.65314954  0.00387853    -0.18100
C228        C  0.17723684  0.65261057  0.90054064    -0.18100
H229        H  0.28278799  0.70615088  0.07045531     0.14800
H230        H  0.23742151  0.69560533  0.12666149     0.14800
H231        H  0.11261756  0.67945365  0.87357247     0.14800
H232        H  0.06540544  0.67979599  0.92969900     0.14800
H233        H  0.29074825  0.63421445  0.92818941     0.13100
H234        H  0.24197541  0.62537460  0.87542102     0.13100
H235        H  0.11671173  0.62574455  0.13217528     0.13100
H236        H  0.06727990  0.62597246  0.07878537     0.13100
H237        H  0.20322011  0.64142326  0.02535929     0.26300
H238        H  0.15696134  0.63777944  0.97786815     0.26300
N239        N  0.21156770  0.66396616  0.45885152    -0.36400
N240        N  0.13719079  0.64911347  0.45923223    -0.57000
N241        N  0.13773707  0.65211601  0.54424595    -0.36400
N242        N  0.21270787  0.66255478  0.54387428    -0.57000
C243        C  0.20632870  0.65196751  0.42189810     0.27100
C244        C  0.24574902  0.66230510  0.46633918     0.27100
C245        C  0.10502588  0.64152471  0.53775936     0.27100
C246        C  0.14543254  0.64460421  0.58229882     0.27100
C247        C  0.14240004  0.65393768  0.42004742     0.35800
C248        C  0.10285319  0.65099660  0.46525262     0.35800
C249        C  0.24336946  0.67827277  0.53671299     0.35800
C250        C  0.20495687  0.66849703  0.58217901     0.35800
C251        C  0.23746806  0.64233201  0.40575821    -0.21700
C252        C  0.26218304  0.64824534  0.43391833    -0.21700
C253        C  0.09166014  0.62700035  0.57203636    -0.21700
C254        C  0.11732218  0.62845588  0.60001059    -0.21700
C255        C  0.11117383  0.65791631  0.40092615    -0.22800
C256        C  0.08614949  0.65635051  0.42960478    -0.22800
C257        C  0.25467580  0.69472465  0.57063282    -0.22800
C258        C  0.23061643  0.68812504  0.59945375    -0.22800
C259        C  0.17479129  0.65268299  0.40111519    -0.18100
C260        C  0.26217118  0.67502321  0.50089570    -0.18100
C261        C  0.17570136  0.65530179  0.60226983    -0.18100
C262        C  0.08641477  0.64642738  0.50232400    -0.18100
H263        H  0.24215096  0.63210230  0.37666449     0.14800
H264        H  0.28907413  0.64234282  0.43049073     0.14800
H265        H  0.06607321  0.61647447  0.57640852     0.14800
H266        H  0.11510137  0.61945868  0.63025642     0.14800
H267        H  0.10680483  0.66145925  0.36957919     0.13100
H268        H  0.05879493  0.65856228  0.42464932     0.13100
H269        H  0.27756064  0.71027466  0.57456117     0.13100
H270        H  0.23161521  0.69727200  0.62955584     0.13100
H271        H  0.19342316  0.67658009  0.47603927     0.26300
H272        H  0.15238789  0.66760961  0.52525275     0.26300
N273        N  0.52239775  0.35338236  0.03158650    -0.36400
N274        N  0.53341356  0.35264564  0.94722799    -0.57000
N275        N  0.52671262  0.27795453  0.94857771    -0.36400
N276        N  0.51160235  0.27910612  0.03267048    -0.57000
C277        C  0.51922715  0.38694442  0.02141088     0.27100
C278        C  0.50506384  0.34834419  0.06595092     0.27100
C279        C  0.52333337  0.28462604  0.90938763     0.27100
C280        C  0.51636564  0.24509037  0.95507810     0.27100
C281        C  0.54582920  0.38437912  0.95532772     0.35800
C282        C  0.54467001  0.34480513  0.91066513     0.35800
C283        C  0.51182695  0.28540416  0.07201387     0.35800
C284        C  0.51788146  0.24518865  0.02847585     0.35800
C285        C  0.49880584  0.40310383  0.04915616    -0.21700
C286        C  0.49004021  0.37879310  0.07729607    -0.21700
C287        C  0.51006640  0.25573625  0.89089595    -0.21700
C288        C  0.50645568  0.23058877  0.91950299    -0.21700
C289        C  0.56575348  0.39639128  0.92400069    -0.22800
C290        C  0.56464917  0.37145652  0.89552652    -0.22800
C291        C  0.51785534  0.25527514  0.09282096    -0.22800
C292        C  0.52125559  0.22981564  0.06536339    -0.22800
C293        C  0.53616344  0.40336502  0.98898386    -0.18100
C294        C  0.50544352  0.31785282  0.08913005    -0.18100
C295        C  0.51836961  0.22758770  0.99191678    -0.18100
C296        C  0.53480470  0.31503385  0.88975688    -0.18100
H297        H  0.49086718  0.42962136  0.04927951     0.14800
H298        H  0.47464003  0.38309897  0.10340812     0.14800
H299        H  0.50436958  0.25261679  0.85983269     0.14800
H300        H  0.49761555  0.20464626  0.91427715     0.14800
H301        H  0.57954429  0.42055313  0.92150236     0.13100
H302        H  0.57713490  0.37275240  0.86694711     0.13100
H303        H  0.51980774  0.25176882  0.12447239     0.13100
H304        H  0.52549334  0.20300976  0.07207690     0.13100
H305        H  0.53908029  0.33605506  0.01856197     0.26300
H306        H  0.53927526  0.29342007  0.96903199     0.26300
N307        N  0.52184457  0.35403923  0.44672136    -0.36400
N308        N  0.53047491  0.35450497  0.53114560    -0.57000
N309        N  0.52051805  0.28009572  0.53318812    -0.36400
N310        N  0.50737622  0.27928037  0.44926407    -0.57000
C311        C  0.51924454  0.38806088  0.45470398     0.27100
C312        C  0.50618566  0.34835460  0.41158339     0.27100
C313        C  0.51715111  0.28781740  0.57190907     0.27100
C314        C  0.50868972  0.24763322  0.52843599     0.27100
C315        C  0.54380216  0.38577219  0.52199273     0.35800
C316        C  0.54112953  0.34691613  0.56816789     0.35800
C317        C  0.50977000  0.28469717  0.40977299     0.35800
C318        C  0.51207130  0.24521115  0.45544336     0.35800
C319        C  0.50100779  0.40384447  0.42440658    -0.21700
C320        C  0.49321361  0.37890744  0.39708666    -0.21700
C321        C  0.50259403  0.26005625  0.59194737    -0.21700
C322        C  0.49739181  0.23459875  0.56448704    -0.21700
C323        C  0.56381627  0.39755486  0.55318513    -0.22800
C324        C  0.56151945  0.37321691  0.58268525    -0.22800
C325        C  0.51534814  0.25391599  0.39072147    -0.22800
C326        C  0.51710119  0.22897189  0.41962807    -0.22800
C327        C  0.53444861  0.40488147  0.48781993    -0.18100
C328        C  0.50600766  0.31695248  0.39070854    -0.18100
C329        C  0.51082288  0.22871377  0.49302004    -0.18100
C330        C  0.53032530  0.31778111  0.58997410    -0.18100
H331        H  0.49359521  0.43041825  0.42193990     0.14800
H332        H  0.47950076  0.38280003  0.36961166     0.14800
H333        H  0.49735967  0.25792573  0.62329961     0.14800
H334        H  0.48705790  0.20918028  0.57046843     0.14800
H335        H  0.57853507  0.42118576  0.55495496     0.13100
H336        H  0.57356195  0.37464550  0.61146395     0.13100
H337        H  0.51834869  0.24988344  0.35930616     0.13100
H338        H  0.52179653  0.20204399  0.41465851     0.13100
H339        H  0.53687678  0.33638635  0.46196956     0.26300
H340        H  0.53431798  0.29431091  0.51228725     0.26300
N341        N  0.54034244  0.84026116  0.04971348    -0.36400
N342        N  0.53847507  0.91587058  0.05137360    -0.57000
N343        N  0.53024966  0.91734926  0.96659359    -0.36400
N344        N  0.53609107  0.84207988  0.96467986    -0.57000
C345        C  0.55063100  0.84706170  0.08705478     0.27100
C346        C  0.55109851  0.80818478  0.04075057     0.27100
C347        C  0.53709670  0.95101908  0.97316898     0.27100
C348        C  0.53420571  0.91181184  0.92741573     0.27100
C349        C  0.53534753  0.90890552  0.09045418     0.35800
C350        C  0.53182832  0.94972213  0.04654845     0.35800
C351        C  0.53027594  0.80823379  0.97171450     0.35800
C352        C  0.52347433  0.84886785  0.92823805     0.35800
C353        C  0.56823087  0.81919286  0.10215642    -0.21700
C354        C  0.56905831  0.79490342  0.07281020    -0.21700
C355        C  0.54487094  0.96708092  0.93740078    -0.21700
C356        C  0.54330154  0.94231616  0.90866886    -0.21700
C357        C  0.52695900  0.93850237  0.11060006    -0.22800
C358        C  0.52512255  0.96439035  0.08290588    -0.22800
C359        C  0.51310144  0.79383711  0.93978031    -0.22800
C360        C  0.50928766  0.81947000  0.91209131    -0.22800
C361        C  0.54276410  0.87695086  0.10860525    -0.18100
C362        C  0.54263371  0.79021457  0.00547354    -0.18100
C363        C  0.52748362  0.88044756  0.90794014    -0.18100
C364        C  0.53411154  0.96787840  0.01009886    -0.18100
H365        H  0.57957392  0.81675083  0.13123806     0.14800
H366        H  0.58165986  0.77039459  0.07523361     0.14800
H367        H  0.55060030  0.99392935  0.93208780     0.14800
H368        H  0.54771536  0.94648583  0.87739815     0.14800
H369        H  0.52334519  0.94138982  0.14211280     0.13100
H370        H  0.51984336  0.99100015  0.08910939     0.13100
H371        H  0.50381204  0.76777040  0.93652474     0.13100
H372        H  0.49733743  0.81684967  0.88336985     0.13100
H373        H  0.52337425  0.85514828  0.03331161     0.26300
H374        H  0.51979417  0.89985630  0.98673831     0.26300
N375        N  0.53638679  0.84324799  0.46578809    -0.36400
N376        N  0.53178013  0.84191484  0.55125882    -0.57000
N377        N  0.52846422  0.91736888  0.55026366    -0.36400
N378        N  0.52953528  0.91817352  0.46481813    -0.57000
C379        C  0.52913217  0.80971722  0.47364682     0.27100
C380        C  0.52641700  0.84967603  0.42806818     0.27100
C381        C  0.52149236  0.91059430  0.58880410     0.27100
C382        C  0.52130401  0.95089263  0.54340132     0.27100
C383        C  0.54268839  0.80945348  0.54512498     0.35800
C384        C  0.53707000  0.84864348  0.58997386     0.35800
C385        C  0.53445117  0.91295828  0.42576126     0.35800
C386        C  0.53227843  0.95242415  0.47060264     0.35800
C387        C  0.51340051  0.79526927  0.44072437    -0.21700
C388        C  0.51231087  0.82026114  0.41188609    -0.21700
C389        C  0.50977805  0.94009796  0.60671116    -0.21700
C390        C  0.50998277  0.96553530  0.57829817    -0.21700
C391        C  0.55531763  0.79585562  0.58027733    -0.22800
C392        C  0.55116751  0.82041262  0.60865892    -0.22800
C393        C  0.53988835  0.94401297  0.40643656    -0.22800
C394        C  0.53831385  0.96901969  0.43475141    -0.22800
C395        C  0.53853021  0.79167392  0.50883250    -0.18100
C396        C  0.53140132  0.88081943  0.40699497    -0.18100
C397        C  0.52676963  0.96904356  0.50722138    -0.18100
C398        C  0.52844808  0.87949878  0.60914107    -0.18100
H399        H  0.50309203  0.76957477  0.43752193     0.14800
H400        H  0.50184720  0.81726469  0.38245671     0.14800
H401        H  0.50274425  0.94327698  0.63741290     0.14800
H402        H  0.50314594  0.99194586  0.58336082     0.14800
H403        H  0.56690049  0.77119396  0.58556694     0.13100
H404        H  0.55837058  0.81798260  0.63944789     0.13100
H405        H  0.54376850  0.94830579  0.37509294     0.13100
H406        H  0.54063159  0.99632796  0.42922973     0.13100
H407        H  0.55101041  0.85963390  0.48338826     0.26300
H408        H  0.54112371  0.90109889  0.53114637     0.26300
O409        O  0.31913380  0.51039710  0.96788864    -0.72800
O410        O  0.42209234  0.50729852  0.96464641    -0.73800
O411        O  0.36936153  0.45645058  0.96752008    -0.62400
O412        O  0.37261974  0.55963019  0.96525801    -0.70800
O413        O  0.37213674  0.55985488  0.03089713    -0.70300
O414        O  0.37403145  0.45722592  0.03269406    -0.61600
O415        O  0.42401752  0.50972678  0.03018789    -0.74100
O416        O  0.32063091  0.50711750  0.03290297    -0.72900
Cu417      Cu  0.37065455  0.50826900  0.96403495     1.04600
Cu418      Cu  0.37260883  0.50842578  0.03393973     1.04300
C419        C  0.30327416  0.50996694  0.00096612     0.93400
C420        C  0.43923761  0.50877157  0.99677874     0.92600
C421        C  0.37259460  0.44045492  0.00049007     0.84700
C422        C  0.37294898  0.57592351  0.99784389     0.91000
O423        O  0.36489976  0.56285162  0.46650060    -0.72800
O424        O  0.36797110  0.45924603  0.47258175    -0.73800
O425        O  0.31421482  0.50944147  0.47230669    -0.62400
O426        O  0.41721253  0.51246771  0.46559063    -0.70800
O427        O  0.41979326  0.51136132  0.53114403    -0.70300
O428        O  0.31653120  0.51521953  0.53710894    -0.61600
O429        O  0.36629682  0.46122318  0.53770370    -0.74100
O430        O  0.37017475  0.56410171  0.53179706    -0.72900
Cu431      Cu  0.36580759  0.51084760  0.46694756     1.04600
Cu432      Cu  0.36823712  0.51297052  0.53668200     1.04300
C433        C  0.36785529  0.57973704  0.49862945     0.93400
C434        C  0.36819805  0.44368961  0.50607631     0.92600
C435        C  0.29884758  0.51325460  0.50538594     0.84700
C436        C  0.43473116  0.51190284  0.49743464     0.91000
O437        O  0.36911718  0.73286334  0.02686009    -0.72800
O438        O  0.37550280  0.62982150  0.02979106    -0.73800
O439        O  0.42407311  0.68473052  0.02850389    -0.62400
O440        O  0.32148047  0.67607346  0.02915804    -0.70800
O441        O  0.32034962  0.67956261  0.96406298    -0.70300
O442        O  0.42463723  0.68185126  0.96302862    -0.61600
O443        O  0.37269140  0.62952917  0.96423300    -0.74100
O444        O  0.37298105  0.73264558  0.96182177    -0.72900
Cu445      Cu  0.37257976  0.68110664  0.03077716     1.04600
Cu446      Cu  0.37261023  0.68098085  0.96094351     1.04300
C447        C  0.37128597  0.74937489  0.99404291     0.93400
C448        C  0.37391300  0.61348561  0.99726990     0.92600
C449        C  0.44067198  0.68365425  0.99596877     0.84700
C450        C  0.30443154  0.67551501  0.99699559     0.91000
O451        O  0.36716309  0.63417768  0.46560912    -0.72800
O452        O  0.37104339  0.73759113  0.46836590    -0.73800
O453        O  0.42063207  0.68515125  0.46649824    -0.62400
O454        O  0.31662340  0.68639981  0.46795411    -0.70800
O455        O  0.31727460  0.68096254  0.53288279    -0.70300
O456        O  0.42024227  0.68699688  0.53203593    -0.61600
O457        O  0.36664020  0.73675036  0.53324307    -0.74100
O458        O  0.37044309  0.63330499  0.53110136    -0.72900
Cu459      Cu  0.36876190  0.68602808  0.46480167     1.04600
Cu460      Cu  0.36866238  0.68463746  0.53454536     1.04300
C461        C  0.36854510  0.61747349  0.49822824     0.93400
C462        C  0.36957326  0.75387626  0.50096054     0.92600
C463        C  0.43674080  0.68607761  0.49939889     0.84700
C464        C  0.30042239  0.68159715  0.50054416     0.91000
O465        O  0.59730323  0.50822905  0.02060668    -0.72800
O466        O  0.49427032  0.50867898  0.02702934    -0.73800
O467        O  0.54443206  0.45696035  0.02249998    -0.62400
O468        O  0.54666289  0.56010779  0.02583073    -0.70800
O469        O  0.54351352  0.56276284  0.96037714    -0.70300
O470        O  0.54139993  0.45907844  0.95724679    -0.61600
O471        O  0.49165367  0.51072891  0.96146673    -0.74100
O472        O  0.59450456  0.51195515  0.95548599    -0.72900
Cu473      Cu  0.54587464  0.50839278  0.02622669     1.04600
Cu474      Cu  0.54279879  0.51110592  0.95634926     1.04300
C475        C  0.61238276  0.51115912  0.98712982     0.93400
C476        C  0.47678970  0.50943481  0.99508488     0.92600
C477        C  0.54126466  0.44158727  0.98947548     0.84700
C478        C  0.54526610  0.57770656  0.99382436     0.91000
O479        O  0.54143789  0.56184691  0.52763376    -0.72800
O480        O  0.53939520  0.45901758  0.52166984    -0.73800
O481        O  0.59246054  0.51144298  0.52224861    -0.62400
O482        O  0.48964584  0.51054726  0.52735099    -0.70800
O483        O  0.48760286  0.51314556  0.46181381    -0.70300
O484        O  0.59137122  0.51266240  0.45707188    -0.61600
O485        O  0.53849206  0.46105242  0.45648209    -0.74100
O486        O  0.54041785  0.56482255  0.46209833    -0.72900
Cu487      Cu  0.54093857  0.51050266  0.52687888     1.04600
Cu488      Cu  0.53942020  0.51303416  0.45701608     1.04300
C489        C  0.54110193  0.57957482  0.49575380     0.93400
C490        C  0.53783549  0.44345789  0.48855258     0.92600
C491        C  0.60852582  0.51261103  0.48930849     0.84700
C492        C  0.47239165  0.51186408  0.49536055     0.91000
O493        O  0.54461644  0.63007666  0.02934862    -0.72800
O494        O  0.54557182  0.73349973  0.03541582    -0.73800
O495        O  0.49389033  0.68224624  0.03026863    -0.62400
O496        O  0.59738796  0.68003953  0.03403510    -0.70800
O497        O  0.59940293  0.68474016  0.96902066    -0.70300
O498        O  0.49575830  0.68536333  0.96477707    -0.61600
O499        O  0.54827279  0.73679279  0.97033811    -0.74100
O500        O  0.54694166  0.63337832  0.96388372    -0.72900
Cu501      Cu  0.54541485  0.68147591  0.03453096     1.04600
Cu502      Cu  0.54772685  0.68526369  0.96477378     1.04300
C503        C  0.54562581  0.61546066  0.99570954     0.93400
C504        C  0.54594921  0.75170487  0.00376206     0.92600
C505        C  0.47852014  0.68390380  0.99693997     0.84700
C506        C  0.61493872  0.68099605  0.00201636     0.91000
O507        O  0.54104607  0.73482820  0.53897471    -0.72800
O508        O  0.54064959  0.63150787  0.53205307    -0.73800
O509        O  0.59326449  0.68156747  0.53852672    -0.62400
O510        O  0.48986299  0.68346922  0.53347187    -0.70800
O511        O  0.49181017  0.68761354  0.46804551    -0.70300
O512        O  0.59530174  0.68619424  0.47357408    -0.61600
O513        O  0.54269998  0.63542742  0.46660505    -0.74100
O514        O  0.54483276  0.73830152  0.47409446    -0.72900
Cu515      Cu  0.54123988  0.68284646  0.53803492     1.04600
Cu516      Cu  0.54381690  0.68709963  0.46836356     1.04300
C517        C  0.54190486  0.75314279  0.50741385     0.93400
C518        C  0.54149360  0.61724149  0.49817450     0.92600
C519        C  0.61082008  0.68216732  0.50657448     0.84700
C520        C  0.47454891  0.68576587  0.50019688     0.91000
N521        N  0.21452425  0.52529599  0.95956680    -0.36400
N522        N  0.21402667  0.51940130  0.04482700    -0.57000
N523        N  0.13923569  0.53241956  0.04502270    -0.36400
N524        N  0.13974422  0.53380371  0.96013120    -0.57000
C525        C  0.24530390  0.51037105  0.96672921     0.27100
C526        C  0.20602411  0.51870937  0.92153462     0.27100
C527        C  0.14494866  0.52337499  0.08307633     0.27100
C528        C  0.10525837  0.52750017  0.03785306     0.27100
C529        C  0.24823079  0.52319521  0.03809340     0.35800
C530        C  0.20863314  0.52853651  0.08282582     0.35800
C531        C  0.14627132  0.54061694  0.92165850     0.35800
C532        C  0.10643528  0.54172747  0.96632401     0.35800
C533        C  0.25598756  0.49365042  0.93280341    -0.21700
C534        C  0.23149496  0.49934657  0.90425420    -0.21700
C535        C  0.11426811  0.51318924  0.10063194    -0.21700
C536        C  0.08924928  0.51553928  0.07200878    -0.21700
C537        C  0.26425301  0.53531653  0.07203186    -0.22800
C538        C  0.23927434  0.53820745  0.10034288    -0.22800
C539        C  0.11711535  0.55348217  0.90348557    -0.22800
C540        C  0.09185202  0.55409707  0.93177816    -0.22800
C541        C  0.26474410  0.51407827  0.00216758    -0.18100
C542        C  0.17634799  0.53054043  0.90166461    -0.18100
C543        C  0.08827252  0.53457579  0.00167073    -0.18100
C544        C  0.17682300  0.52608266  0.10281429    -0.18100
H545        H  0.27875028  0.47842564  0.92873092     0.14800
H546        H  0.23214565  0.48984958  0.87428992     0.14800
H547        H  0.11033627  0.50482917  0.13090385     0.14800
H548        H  0.06232533  0.50922894  0.07603505     0.14800
H549        H  0.29085120  0.54243350  0.07640720     0.13100
H550        H  0.24315359  0.54691518  0.13032957     0.13100
H551        H  0.11382821  0.56006934  0.87261120     0.13100
H552        H  0.06550602  0.56176654  0.92715535     0.13100
H553        H  0.20179169  0.54217967  0.97810302     0.26300
H554        H  0.15711242  0.54439329  0.02651444     0.26300
N555        N  0.21054240  0.51744859  0.46198493    -0.36400
N556        N  0.20853759  0.51879201  0.54730465    -0.57000
N557        N  0.13348967  0.51661643  0.54409443    -0.36400
N558        N  0.13597525  0.51870235  0.45890034    -0.57000
C559        C  0.24307781  0.52667040  0.47153292     0.27100
C560        C  0.20446701  0.52924098  0.42489261     0.27100
C561        C  0.13874867  0.52605576  0.58199641     0.27100
C562        C  0.10031644  0.52326650  0.53512840     0.27100
C563        C  0.24168981  0.50961052  0.54187130     0.35800
C564        C  0.20074923  0.51189337  0.58555822     0.35800
C565        C  0.14391195  0.51108570  0.42113151     0.35800
C566        C  0.10339159  0.50751039  0.46477985     0.35800
C567        C  0.25748585  0.54547091  0.44050003    -0.21700
C568        C  0.23310313  0.54703394  0.41105475    -0.21700
C569        C  0.10847702  0.53890026  0.59738773    -0.21700
C570        C  0.08431882  0.53745759  0.56767314    -0.21700
C571        C  0.25476964  0.49638618  0.57694166    -0.22800
C572        C  0.22913486  0.49855804  0.60469438    -0.22800
C573        C  0.11648991  0.49460606  0.40304738    -0.22800
C574        C  0.09084868  0.49214041  0.43081671    -0.22800
C575        C  0.26039076  0.51603548  0.50639895    -0.18100
C576        C  0.17481786  0.52127987  0.40243353    -0.18100
C577        C  0.08402322  0.51434493  0.49913379    -0.18100
C578        C  0.16907295  0.51973831  0.60380980    -0.18100
H579        H  0.28286547  0.55702005  0.43906534     0.14800
H580        H  0.23628175  0.55947405  0.38254524     0.14800
H581        H  0.10392388  0.54780148  0.62711185     0.14800
H582        H  0.05788345  0.54549209  0.57008586     0.14800
H583        H  0.27995550  0.48609422  0.58260855     0.13100
H584        H  0.23128549  0.49089492  0.63537979     0.13100
H585        H  0.11505881  0.48537298  0.37301322     0.13100
H586        H  0.06568988  0.48074900  0.42630823     0.13100
H587        H  0.19502999  0.50027485  0.47789790     0.26300
H588        H  0.15033588  0.50247779  0.52693471     0.26300
N589        N  0.70151936  0.52260150  0.02781922    -0.36400
N590        N  0.70182738  0.51605319  0.94315541    -0.57000
N591        N  0.77732875  0.51804138  0.94454488    -0.36400
N592        N  0.77644485  0.52797079  0.02906632    -0.57000
C593        C  0.66825629  0.52858616  0.01857156     0.27100
C594        C  0.70747204  0.53685595  0.06352652     0.27100
C595        C  0.77109232  0.52224644  0.90540251     0.27100
C596        C  0.81070782  0.52667063  0.95100169     0.27100
C597        C  0.66900245  0.50603464  0.95063709     0.35800
C598        C  0.70906932  0.50597394  0.90597713     0.35800
C599        C  0.77009511  0.52684342  0.06836660     0.35800
C600        C  0.81049487  0.52255468  0.02448796     0.35800
C601        C  0.65335143  0.54779902  0.04833143    -0.21700
C602        C  0.67798986  0.55255769  0.07692870    -0.21700
C603        C  0.80082676  0.53379179  0.88677141    -0.21700
C604        C  0.82588535  0.53610053  0.91534426    -0.21700
C605        C  0.65561928  0.48903672  0.91808191    -0.22800
C606        C  0.68083994  0.48945077  0.88967853    -0.22800
C607        C  0.80024992  0.52117132  0.08898351    -0.22800
C608        C  0.82588739  0.51863473  0.06122683    -0.22800
C609        C  0.65076300  0.51471788  0.98543179    -0.18100
C610        C  0.73784740  0.53327266  0.08580941    -0.18100
C611        C  0.82813072  0.52410992  0.98780931    -0.18100
C612        C  0.74010670  0.51330756  0.88571230    -0.18100
H613        H  0.62743569  0.55747728  0.04960701     0.14800
H614        H  0.67459031  0.56595295  0.10453740     0.14800
H615        H  0.80441032  0.53928179  0.85562522     0.14800
H616        H  0.85231840  0.54359694  0.91004472     0.14800
H617        H  0.63053312  0.47727073  0.91472374     0.13100
H618        H  0.67875690  0.47851727  0.86045862     0.13100
H619        H  0.80355940  0.51972863  0.12071574     0.13100
H620        H  0.85284348  0.51501946  0.06759061     0.13100
H621        H  0.71778072  0.50583770  0.01323897     0.26300
H622        H  0.76086950  0.50621257  0.96479020     0.26300
N623        N  0.69728423  0.51963362  0.44425499    -0.36400
N624        N  0.69901863  0.51446125  0.52970074    -0.57000
N625        N  0.77371032  0.51607112  0.52693929    -0.36400
N626        N  0.77228591  0.52487174  0.44187866    -0.57000
C627        C  0.66451622  0.52715305  0.45444632     0.27100
C628        C  0.70338290  0.53391452  0.40822022     0.27100
C629        C  0.76833920  0.52111123  0.56596182     0.27100
C630        C  0.80698130  0.52396686  0.51942976     0.27100
C631        C  0.66607933  0.50465461  0.52295542     0.35800
C632        C  0.70664902  0.50455888  0.56708575     0.35800
C633        C  0.76527277  0.52095469  0.40304259     0.35800
C634        C  0.80576463  0.51688406  0.44672086     0.35800
C635        C  0.65006871  0.54731825  0.42486845    -0.21700
C636        C  0.67450293  0.55133879  0.39564634    -0.21700
C637        C  0.79862486  0.53241153  0.58343291    -0.21700
C638        C  0.82302099  0.53422885  0.55402026    -0.21700
C639        C  0.65313405  0.48771710  0.55619718    -0.22800
C640        C  0.67851861  0.48842801  0.58432502    -0.22800
C641        C  0.79443849  0.51037383  0.38315988    -0.22800
C642        C  0.82015423  0.50798882  0.41083587    -0.22800
C643        C  0.64719803  0.51423024  0.48865828    -0.18100
C644        C  0.73344795  0.52919188  0.38531459    -0.18100
C645        C  0.82375091  0.51921871  0.48288224    -0.18100
C646        C  0.73785872  0.51225229  0.58657925    -0.18100
H647        H  0.62471852  0.55839267  0.42425342     0.14800
H648        H  0.67137395  0.56547652  0.36822493     0.14800
H649        H  0.80307146  0.53781789  0.61433496     0.14800
H650        H  0.84970159  0.54161051  0.55782599     0.14800
H651        H  0.62819977  0.47579185  0.56037160     0.13100
H652        H  0.67645116  0.47794915  0.61394723     0.13100
H653        H  0.79703509  0.50496339  0.35199433     0.13100
H654        H  0.84640064  0.50053780  0.40518891     0.13100
H655        H  0.71315011  0.50227115  0.45884514     0.26300
H656        H  0.75698719  0.50374361  0.50760553     0.26300
C657        C  0.71755749  0.53300850  0.77876914    -0.10700
C658        C  0.73916524  0.51076063  0.75803629     0.06500
C659        C  0.76064743  0.48868413  0.77966864    -0.09400
C660        C  0.76095853  0.48936595  0.82107411    -0.11100
C661        C  0.73978940  0.51210538  0.84162597    -0.00900
C662        C  0.71788341  0.53368176  0.82008508    -0.10000
C663        C  0.73938189  0.51092468  0.71403543     0.06500
H664        H  0.77764747  0.47132301  0.76454446     0.08400
H665        H  0.77780889  0.47226790  0.83713612     0.11900
H666        H  0.70112312  0.55120976  0.83533431     0.12100
H667        H  0.70029572  0.54988567  0.76298393     0.08400
C668        C  0.74005341  0.48002030  0.69283963    -0.10700
C669        C  0.73974137  0.48037498  0.65143425    -0.10000
C670        C  0.73855444  0.51160367  0.63053061    -0.00900
C671        C  0.73820528  0.54247920  0.65153212    -0.11100
C672        C  0.73870650  0.54214948  0.69286678    -0.09500
H673        H  0.74030461  0.45557769  0.70829829     0.08400
H674        H  0.74012287  0.45631626  0.63564221     0.12100
H675        H  0.73767042  0.56682163  0.63583473     0.11900
H676        H  0.73890181  0.56633372  0.70834845     0.08400
C677        C  0.72157499  0.50639088  0.19193028    -0.10700
C678        C  0.73088328  0.53607577  0.21308571     0.06500
C679        C  0.74183608  0.56537507  0.19149269    -0.09400
C680        C  0.74413133  0.56467992  0.15014315    -0.11100
C681        C  0.73515321  0.53483124  0.12956297    -0.00900
C682        C  0.72347446  0.50590167  0.15067334    -0.10000
C683        C  0.73018439  0.53595671  0.25735835     0.06500
H684        H  0.74856043  0.58893740  0.20646214     0.08400
H685        H  0.75284268  0.58737987  0.13419136     0.11900
H686        H  0.71639572  0.48267463  0.13514127     0.12100
H687        H  0.71363190  0.48311598  0.20719688     0.08400
C688        C  0.70587207  0.51594351  0.27847968    -0.10700
C689        C  0.70667672  0.51417946  0.31983335    -0.10000
C690        C  0.73141392  0.53279380  0.34126634    -0.00900
C691        C  0.75491065  0.55373584  0.32038991    -0.11100
C692        C  0.75460506  0.55495627  0.27902842    -0.09500
H693        H  0.68618357  0.50147064  0.26312936     0.08400
H694        H  0.68822964  0.49783509  0.33514159     0.12100
H695        H  0.77406614  0.56862658  0.33615088     0.11900
H696        H  0.77408053  0.57028784  0.26411595     0.08400
C697        C  0.99348656  0.52950772  0.46129113    -0.10700
C698        C  0.97284434  0.51334665  0.49028442     0.06500
C699        C  0.98941851  0.49683588  0.52219109    -0.09400
C700        C  0.02534234  0.49655486  0.52482484    -0.11100
C701        C  0.04563556  0.51377867  0.49644128    -0.00900
C702        C  0.02917110  0.53029908  0.46478471    -0.10000
C703        C  0.93442185  0.51416075  0.48732068     0.06500
H704        H  0.97482388  0.48447583  0.54560033     0.08400
H705        H  0.03729470  0.48313473  0.54928517     0.11900
H706        H  0.04404494  0.54376730  0.44234865     0.12100
H707        H  0.98231736  0.54158253  0.43552452     0.08400
C708        C  0.91781445  0.54124191  0.46729978    -0.10700
C709        C  0.88200929  0.54233428  0.46485818    -0.10000
C710        C  0.86182555  0.51677766  0.48293742    -0.00900
C711        C  0.87794668  0.48955851  0.50263694    -0.11100
C712        C  0.91380613  0.48806111  0.50451743    -0.09500
H713        H  0.93224714  0.56207320  0.45392417     0.08400
H714        H  0.86994216  0.56342391  0.44941943     0.12100
H715        H  0.86267253  0.46946386  0.51661408     0.11900
H716        H  0.92517435  0.46621692  0.51922002     0.08400
C717        C  0.16871745  0.49211690  0.71159329    -0.10700
C718        C  0.16852052  0.52390011  0.73096889     0.06500
C719        C  0.16650710  0.55411858  0.70822380    -0.09400
C720        C  0.16625678  0.55274735  0.66692801    -0.11100
C721        C  0.16756986  0.52107377  0.64767503    -0.00900
C722        C  0.16808045  0.49072938  0.67028776    -0.10000
C723        C  0.17081432  0.52556602  0.77471474     0.06500
H724        H  0.16495309  0.57871232  0.72254278     0.08400
H725        H  0.16509074  0.57630667  0.64985653     0.11900
H726        H  0.16876768  0.46603191  0.65587098     0.12100
H727        H  0.17017518  0.46838798  0.72837138     0.08400
C728        C  0.15089863  0.50328971  0.79846177    -0.10700
C729        C  0.15302049  0.50480016  0.83962136    -0.10000
C730        C  0.17514942  0.52852616  0.85783331    -0.00900
C731        C  0.19544301  0.55055190  0.83430442    -0.11100
C732        C  0.19316616  0.54921174  0.79303806    -0.09500
H733        H  0.13330749  0.48502691  0.78516524     0.08400
H734        H  0.13720784  0.48760552  0.85740357     0.12100
H735        H  0.21265460  0.56900525  0.84791009     0.11900
H736        H  0.20904393  0.56646646  0.77541360     0.08400
C737        C  0.20376347  0.50908611  0.29594040    -0.10700
C738        C  0.17725458  0.52497153  0.27443460     0.06500
C739        C  0.15027962  0.54012680  0.29556240    -0.09400
C740        C  0.14996107  0.53962721  0.33687544    -0.11100
C741        C  0.17612981  0.52323050  0.35826272    -0.00900
C742        C  0.20298891  0.50789909  0.33727970    -0.10000
C743        C  0.17751061  0.52545679  0.23027593     0.06500
H744        H  0.12914819  0.55220065  0.28025222     0.08400
H745        H  0.12910203  0.55199227  0.35222945     0.11900
H746        H  0.22334171  0.49479349  0.35292000     0.12100
H747        H  0.22527899  0.49762617  0.28089983     0.08400
C748        C  0.16395799  0.55343554  0.20894103    -0.10700
C749        C  0.16356975  0.55349983  0.16761494    -0.10000
C750        C  0.17698276  0.52581494  0.14671380    -0.00900
C751        C  0.19075193  0.49797005  0.16761650    -0.11100
C752        C  0.19086419  0.49768611  0.20895783    -0.09500
H753        H  0.15389789  0.57551993  0.22406258     0.08400
H754        H  0.15307833  0.57527800  0.15184760     0.12100
H755        H  0.20108915  0.47630757  0.15185275     0.11900
H756        H  0.20086095  0.47537515  0.22413930     0.08400
C757        C  0.99783884  0.50520753  0.97395436    -0.10700
C758        C  0.97732659  0.52775124  0.99560351     0.06500
C759        C  0.99347435  0.55217595  0.01992994    -0.09400
C760        C  0.02940328  0.55429964  0.02221012    -0.11100
C761        C  0.04990987  0.53218399  0.99997768    -0.00900
C762        C  0.03376629  0.50752493  0.97595420    -0.10000
C763        C  0.93922295  0.52621486  0.99235133     0.06500
H764        H  0.97828661  0.56945723  0.03742366     0.08400
H765        H  0.04125120  0.57338310  0.04104942     0.11900
H766        H  0.04907059  0.49006997  0.95870194     0.12100
H767        H  0.98603043  0.48619648  0.95497902     0.08400
C768        C  0.92088365  0.55540641  0.98067287    -0.10700
C769        C  0.88494113  0.55468063  0.97895904    -0.10000
C770        C  0.86654986  0.52450187  0.98819695    -0.00900
C771        C  0.88488439  0.49487703  0.99866455    -0.11100
C772        C  0.92091223  0.49572077  0.00073207    -0.09500
H773        H  0.93445574  0.57872247  0.97249760     0.08400
H774        H  0.87139065  0.57766207  0.97025270     0.12100
H775        H  0.87122006  0.47125341  0.00574814     0.11900
H776        H  0.93447052  0.47275482  0.00948694     0.08400
C777        C  0.49862922  0.89275848  0.80143423    -0.10700
C778        C  0.52671621  0.87951161  0.78052327     0.06500
C779        C  0.55473559  0.86642701  0.80179776    -0.09400
C780        C  0.55464339  0.86645721  0.84314919    -0.11100
C781        C  0.52682268  0.88010181  0.86397037    -0.00900
C782        C  0.49880336  0.89331412  0.84287385    -0.10000
C783        C  0.52702128  0.87955456  0.73663054     0.06500
H784        H  0.57655060  0.85587493  0.78636377     0.08400
H785        H  0.57641774  0.85608753  0.85900757     0.11900
H786        H  0.47710961  0.90390822  0.85850066     0.12100
H787        H  0.47684318  0.90317130  0.78565357     0.08400
C788        C  0.49945715  0.86524019  0.71533711    -0.10700
C789        C  0.49999566  0.86499930  0.67392361    -0.10000
C790        C  0.52784700  0.87957653  0.65316136    -0.00900
C791        C  0.55534188  0.89399460  0.67433844    -0.11100
C792        C  0.55507269  0.89373099  0.71572898    -0.09500
H793        H  0.47778256  0.85378002  0.73079257     0.08400
H794        H  0.47868902  0.85353537  0.65802112     0.12100
H795        H  0.57706515  0.90525969  0.65875084     0.11900
H796        H  0.57658225  0.90497492  0.73147947     0.08400
C797        C  0.56726482  0.89011741  0.21609937    -0.10700
C798        C  0.53908555  0.87498091  0.23591424     0.06500
C799        C  0.51298023  0.85920207  0.21357213    -0.09400
C800        C  0.51486313  0.85888780  0.17223299    -0.11100
C801        C  0.54259524  0.87477824  0.15253493    -0.00900
C802        C  0.56889245  0.89022113  0.17474017    -0.10000
C803        C  0.53678055  0.87612358  0.27973265     0.06500
H804        H  0.49114981  0.84712912  0.22813596     0.08400
H805        H  0.49429047  0.84695956  0.15551531     0.11900
H806        H  0.59035659  0.90277693  0.15998025     0.12100
H807        H  0.58759082  0.90262324  0.23263644     0.08400
C808        C  0.56476115  0.86607989  0.30320095    -0.10700
C809        C  0.56276248  0.86743837  0.34447627    -0.10000
C810        C  0.53300026  0.87941271  0.36303362    -0.00900
C811        C  0.50507951  0.88973979  0.33971890    -0.11100
C812        C  0.50686334  0.88786933  0.29839382    -0.09500
H813        H  0.58805414  0.85686438  0.28955988     0.08400
H814        H  0.58453829  0.85936106  0.36203084     0.12100
H815        H  0.48201952  0.89927395  0.35356621     0.11900
H816        H  0.48519052  0.89629831  0.28092048     0.08400
C817        C  0.49282421  0.13312622  0.47860295    -0.10700
C818        C  0.51866907  0.11799310  0.50177742     0.06500
C819        C  0.54174153  0.13948591  0.52203724    -0.09400
C820        C  0.53891904  0.17526437  0.51928529    -0.11100
C821        C  0.51307958  0.19040286  0.49605704    -0.00900
C822        C  0.48992092  0.16889525  0.47593439    -0.10000
C823        C  0.52137285  0.07993505  0.50478158     0.06500
H824        H  0.56177460  0.12857763  0.54028393     0.08400
H825        H  0.55710255  0.19124777  0.53514809     0.11900
H826        H  0.46964229  0.17981321  0.45805932     0.12100
H827        H  0.47516036  0.11727391  0.46201702     0.08400
C828        C  0.49217000  0.05975797  0.51337612    -0.10700
C829        C  0.49394410  0.02390529  0.51416037    -0.10000
C830        C  0.52520012  0.00737878  0.50733485    -0.00900
C831        C  0.55481607  0.02749048  0.50020981    -0.11100
C832        C  0.55291262  0.06344168  0.49884147    -0.09500
H833        H  0.46807469  0.07185093  0.52013721     0.08400
H834        H  0.47100007  0.00892946  0.52062412     0.12100
H835        H  0.57927936  0.01528367  0.49514556     0.11900
H836        H  0.57592692  0.07834449  0.49244259     0.08400
C837        C  0.51914530  0.34412974  0.78375739    -0.10700
C838        C  0.53612212  0.31894973  0.76161802     0.06500
C839        C  0.55335450  0.29270596  0.78232704    -0.09400
C840        C  0.55359110  0.29173146  0.82372540    -0.11100
C841        C  0.53579281  0.31636251  0.84554553    -0.00900
C842        C  0.51867789  0.34261114  0.82507009    -0.10000
C843        C  0.53532505  0.31970933  0.71732194     0.06500
H844        H  0.56623142  0.27244309  0.76668176     0.08400
H845        H  0.56730326  0.27142088  0.83877435     0.11900
H846        H  0.50485763  0.36202147  0.84117732     0.12100
H847        H  0.50628555  0.36526871  0.76932127     0.08400
C848        C  0.50688620  0.33323942  0.69685788    -0.10700
C849        C  0.50561801  0.33302873  0.65554733    -0.10000
C850        C  0.53247800  0.31892018  0.63372889    -0.00900
C851        C  0.56114832  0.30589944  0.65358773    -0.11100
C852        C  0.56270233  0.30650600  0.69493517    -0.09500
H853        H  0.48513847  0.34341725  0.71262682     0.08400
H854        H  0.48339217  0.34339323  0.64053069     0.12100
H855        H  0.58232604  0.29534498  0.63702713     0.11900
H856        H  0.58551856  0.29679884  0.70922685     0.08400
C857        C  0.47762156  0.29941801  0.19587147    -0.10700
C858        C  0.49879730  0.32217976  0.21762236     0.06500
C859        C  0.51969663  0.34539529  0.19577892    -0.09400
C860        C  0.52133711  0.34413448  0.15447809    -0.11100
C861        C  0.50117080  0.32061465  0.13318969    -0.00900
C862        C  0.47835242  0.29914231  0.15436597    -0.10000
C863        C  0.50003287  0.32115557  0.26238759     0.06500
H864        H  0.53526890  0.36466212  0.21020084     0.08400
H865        H  0.53893755  0.36133794  0.13908570     0.11900
H866        H  0.46191743  0.28120503  0.13878017     0.12100
H867        H  0.46106079  0.28086197  0.21046053     0.08400
C868        C  0.47356349  0.30549859  0.28511450    -0.10700
C869        C  0.47552840  0.30378462  0.32654614    -0.10000
C870        C  0.50350878  0.31838480  0.34661964    -0.00900
C871        C  0.52980052  0.33414751  0.32452291    -0.11100
C872        C  0.52839091  0.33510240  0.28317523    -0.09500
H873        H  0.45090592  0.29476116  0.27134200     0.08400
H874        H  0.45499714  0.29134234  0.34304138     0.12100
H875        H  0.55191314  0.34517271  0.33937657     0.11900
H876        H  0.55023054  0.34623304  0.26790946     0.08400
C877        C  0.55534243  0.13890185  0.01016773    -0.10700
C878        C  0.52765149  0.11706328  0.00032860     0.06500
C879        C  0.49744043  0.13200280  0.98542723    -0.09400
C880        C  0.49447047  0.16772024  0.98201088    -0.11100
C881        C  0.52189023  0.18939879  0.99260776    -0.00900
C882        C  0.55256420  0.17458274  0.00602523    -0.10000
C883        C  0.53013656  0.07894595  0.00536681     0.06500
H884        H  0.47608193  0.11604136  0.97615790     0.08400
H885        H  0.47068637  0.17846098  0.97124042     0.11900
H886        H  0.57409559  0.19081430  0.01436004     0.12100
H887        H  0.57894682  0.12851013  0.02190837     0.08400
C888        C  0.56100978  0.06171260  0.99754882    -0.10700
C889        C  0.56263622  0.02583415  0.00043653    -0.10000
C890        C  0.53329633  0.00627611  0.01038592    -0.00900
C891        C  0.50280889  0.02341610  0.01951320    -0.11100
C892        C  0.50137737  0.05930546  0.01753061    -0.09500
H893        H  0.58372098  0.07583292  0.98814513     0.08400
H894        H  0.58656095  0.01318383  0.99372769     0.12100
H895        H  0.48007981  0.00891940  0.02811666     0.11900
H896        H  0.47773758  0.07173706  0.02565567     0.08400
C897        C  0.15198541  0.66973292  0.70980843    -0.10700
C898        C  0.17809714  0.65207494  0.72960551     0.06500
C899        C  0.20374893  0.63583443  0.70771262    -0.09400
C900        C  0.20272693  0.63651102  0.66636025    -0.11100
C901        C  0.17644953  0.65406816  0.64636603    -0.00900
C902        C  0.15137346  0.67106270  0.66852371    -0.10000
C903        C  0.17862826  0.65116147  0.77312919     0.06500
H904        H  0.22408049  0.62208791  0.72264792     0.08400
H905        H  0.22231300  0.62321200  0.64988177     0.11900
H906        H  0.13129096  0.68531474  0.65379220     0.12100
H907        H  0.13228970  0.68277862  0.72638506     0.08400
C908        C  0.20143997  0.67246441  0.79380242    -0.10700
C909        C  0.20060847  0.67327836  0.83508098    -0.10000
C910        C  0.17746162  0.65219404  0.85641155    -0.00900
C911        C  0.15485083  0.63064300  0.83551138    -0.11100
C912        C  0.15523905  0.63032441  0.79415905    -0.09500
H913        H  0.21939871  0.68894499  0.77792510     0.08400
H914        H  0.21802799  0.69042830  0.85045573     0.12100
H915        H  0.13685949  0.61419362  0.85124669     0.11900
H916        H  0.13735112  0.61382292  0.77855843     0.08400
C917        C  0.20354723  0.63438399  0.20856869    -0.10700
C918        C  0.18089057  0.65545816  0.22965978     0.06500
C919        C  0.15862087  0.67687899  0.20818210    -0.09400
C920        C  0.15869934  0.67693546  0.16687358    -0.11100
C921        C  0.18073513  0.65531103  0.14602794    -0.00900
C922        C  0.20344059  0.63431458  0.16717420    -0.10000
C923        C  0.17992968  0.65477724  0.27376623     0.06500
H924        H  0.14053608  0.69313158  0.22326015     0.08400
H925        H  0.14122655  0.69358394  0.15106667     0.11900
H926        H  0.22076768  0.61756439  0.15158849     0.12100
H927        H  0.22141974  0.61794464  0.22401174     0.08400
C928        C  0.18458998  0.62388867  0.29489491    -0.10700
C929        C  0.18250263  0.62308201  0.33618329    -0.10000
C930        C  0.17604727  0.65313668  0.35721428    -0.00900
C931        C  0.17189514  0.68410256  0.33647504    -0.11100
C932        C  0.17376674  0.68494093  0.29518755    -0.09500
H933        H  0.18952827  0.60025226  0.27953102     0.08400
H934        H  0.18643446  0.59917824  0.35192278     0.12100
H935        H  0.16734171  0.70765096  0.35234808     0.11900
H936        H  0.17082548  0.70933733  0.28010019     0.08400
C937        C  0.99529126  0.67556419  0.52320392    -0.10700
C938        C  0.97515368  0.64892281  0.50684859     0.06500
C939        C  0.99238061  0.62099220  0.48983887    -0.09400
C940        C  0.02835920  0.62014204  0.48839843    -0.11100
C941        C  0.04810285  0.64682415  0.50444284    -0.00900
C942        C  0.03128593  0.67435394  0.52226873    -0.10000
C943        C  0.93656609  0.65041532  0.50698639     0.06500
H944        H  0.97812788  0.59961539  0.47774062     0.08400
H945        H  0.04098974  0.59878469  0.47466120     0.11900
H946        H  0.04610142  0.69528680  0.53479747     0.12100
H947        H  0.98337477  0.69783066  0.53599938     0.08400
C948        C  0.91864670  0.66708554  0.53742318    -0.10700
C949        C  0.88267095  0.66880235  0.53705198    -0.10000
C950        C  0.86345886  0.65328788  0.50674999    -0.00900
C951        C  0.88118943  0.63642867  0.47655088    -0.11100
C952        C  0.91716067  0.63543699  0.47634060    -0.09500
H953        H  0.93229924  0.67863552  0.56186305     0.08400
H954        H  0.86977030  0.68231642  0.56053932     0.12100
H955        H  0.86712207  0.62455756  0.45260480     0.11900
H956        H  0.92971331  0.62349924  0.45156685     0.08400
C957        C  0.76607537  0.67471248  0.71253396    -0.10700
C958        C  0.74231476  0.65544913  0.73513248     0.06500
C959        C  0.71674296  0.63644709  0.71527721    -0.09400
C960        C  0.71485256  0.63693127  0.67383550    -0.11100
C961        C  0.73869613  0.65615409  0.65137611    -0.00900
C962        C  0.76435115  0.67496156  0.67117506    -0.10000
C963        C  0.74383302  0.65575585  0.77922809     0.06500
H964        H  0.69792522  0.62155545  0.73186480     0.08400
H965        H  0.69491352  0.62215096  0.65924438     0.11900
H966        H  0.78301075  0.68999848  0.65450874     0.12100
H967        H  0.78620882  0.68939174  0.72689862     0.08400
C968        C  0.74056813  0.62514408  0.80133013    -0.10700
C969        C  0.74126905  0.62558680  0.84281511    -0.10000
C970        C  0.74480392  0.65676686  0.86299931    -0.00900
C971        C  0.74847613  0.68732124  0.84102202    -0.11100
C972        C  0.74823399  0.68681461  0.79960801    -0.09500
H973        H  0.73785884  0.60089359  0.78636770     0.08400
H974        H  0.73875881  0.60171443  0.85924035     0.12100
H975        H  0.75132148  0.71162692  0.85603874     0.11900
H976        H  0.75071347  0.71083991  0.78348298     0.08400
C977        C  0.75569912  0.70233764  0.21469711    -0.10700
C978        C  0.73341641  0.68006976  0.23561634     0.06500
C979        C  0.71173074  0.65787214  0.21422338    -0.09400
C980        C  0.71317017  0.65708169  0.17296261    -0.11100
C981        C  0.73629301  0.67845058  0.15224161    -0.00900
C982        C  0.75706601  0.70157923  0.17337209    -0.10000
C983        C  0.73403966  0.67864504  0.27954098     0.06500
H984        H  0.69390739  0.64080489  0.22945370     0.08400
H985        H  0.69673984  0.63926229  0.15716078     0.11900
H986        H  0.77482546  0.71852247  0.15785283     0.12100
H987        H  0.77286122  0.71955493  0.23032665     0.08400
C988        C  0.73648451  0.70878500  0.30206012    -0.10700
C989        C  0.73768497  0.70694239  0.34340943    -0.10000
C990        C  0.73688359  0.67496080  0.36279159    -0.00900
C991        C  0.73465469  0.64491830  0.34046112    -0.11100
C992        C  0.73300827  0.64674327  0.29927199    -0.09500
H993        H  0.73701640  0.73373571  0.28771755     0.08400
H994        H  0.73913719  0.73039077  0.36032808     0.12100
H995        H  0.73376321  0.62008779  0.35507818     0.11900
H996        H  0.73139769  0.62314717  0.28275035     0.08400
C997        C  0.92366313  0.69315287  0.00517691    -0.10700
C998        C  0.94126430  0.66273900  0.01402337     0.06500
C999        C  0.92218374  0.63337866  0.02487929    -0.09400
C1000       C  0.88623997  0.63369293  0.02473647    -0.11100
C1001       C  0.86857491  0.66359047  0.01426950    -0.00900
C1002       C  0.88759036  0.69358069  0.00535869    -0.10000
C1003       C  0.97931617  0.66106767  0.01087304     0.06500
H1004       H  0.93516880  0.61014588  0.03348500     0.08400
H1005       H  0.87210682  0.61058593  0.03280160     0.11900
H1006       H  0.87444807  0.71709236  0.99778043     0.12100
H1007       H  0.93780433  0.71626947  0.99715301     0.08400
C1008       C  0.99464364  0.63695605  0.98591168    -0.10700
C1009       C  0.03046255  0.63458218  0.98334682    -0.10000
C1010       C  0.05174677  0.65611772  0.00592520    -0.00900
C1011       C  0.03643461  0.68047951  0.03066334    -0.11100
C1012       C  0.00055478  0.68307976  0.03292506    -0.09500
H1013       H  0.97886774  0.62006365  0.96816088     0.08400
H1014       H  0.04162216  0.61567511  0.96404200     0.12100
H1015       H  0.05233200  0.69748195  0.04823075     0.11900
H1016       H  0.98935536  0.70186250  0.05236816     0.08400
C1017       C  0.41610673  0.29009929  0.79969830    -0.10700
C1018       C  0.39869250  0.31557387  0.77789791     0.06500
C1019       C  0.38160478  0.34136174  0.79893142    -0.09400
C1020       C  0.38033971  0.34069004  0.84009918    -0.11100
C1021       C  0.39742766  0.31516316  0.86171743    -0.00900
C1022       C  0.41595759  0.29027481  0.84109826    -0.10000
C1023       C  0.39770394  0.31525180  0.73365450     0.06500
H1024       H  0.36897093  0.36225318  0.78378285     0.08400
H1025       H  0.36574006  0.36016728  0.85513937     0.11900
H1026       H  0.42964579  0.27047304  0.85707659     0.12100
H1027       H  0.42927858  0.26949278  0.78503521     0.08400
C1028       C  0.42435316  0.30056249  0.71140370    -0.10700
C1029       C  0.42329200  0.30089493  0.67003562    -0.10000
C1030       C  0.39599080  0.31650103  0.65003373    -0.00900
C1031       C  0.36922981  0.33078192  0.67184707    -0.11100
C1032       C  0.36981595  0.32978787  0.71307336    -0.09500
H1033       H  0.44642136  0.28930140  0.72569986     0.08400
H1034       H  0.44388465  0.28921624  0.65354979     0.12100
H1035       H  0.34753588  0.34221382  0.65684476     0.11900
H1036       H  0.34798265  0.34006485  0.72860274     0.08400
C1037       C  0.38546866  0.34751903  0.21094654    -0.10700
C1038       C  0.36840195  0.32214142  0.23391009     0.06500
C1039       C  0.35118636  0.29546615  0.21367242    -0.09400
C1040       C  0.35127144  0.29412270  0.17235683    -0.11100
C1041       C  0.36979821  0.31846674  0.14992919    -0.00900
C1042       C  0.38661598  0.34535747  0.16969739    -0.10000
C1043       C  0.36947438  0.32277632  0.27841263     0.06500
H1044       H  0.33818183  0.27488596  0.22941087     0.08400
H1045       H  0.33742140  0.27350975  0.15788216     0.11900
H1046       H  0.40083060  0.36472666  0.15311429     0.12100
H1047       H  0.39809865  0.36926577  0.22447471     0.08400
C1048       C  0.39610138  0.34022508  0.29862099    -0.10700
C1049       C  0.39817560  0.33922749  0.33988709    -0.10000
C1050       C  0.37424834  0.32017994  0.36205705    -0.00900
C1051       C  0.34723308  0.30337824  0.34264718    -0.11100
C1052       C  0.34456510  0.30503352  0.30141146    -0.09500
H1053       H  0.41622551  0.35389642  0.28288944     0.08400
H1054       H  0.41903580  0.35263368  0.35455047     0.12100
H1055       H  0.32805881  0.28918786  0.35951095     0.11900
H1056       H  0.32274441  0.29241120  0.28790999     0.08400
C1057       C  0.34926945  0.06172128  0.49777605    -0.10700
C1058       C  0.37893135  0.08129119  0.48909927     0.06500
C1059       C  0.40838528  0.06428316  0.47609927    -0.09400
C1060       C  0.40942865  0.02847988  0.47514628    -0.11100
C1061       C  0.38058496  0.00873617  0.48601819    -0.00900
C1062       C  0.35004888  0.02571711  0.49600362    -0.10000
C1063       C  0.38014735  0.11912546  0.49484773     0.06500
H1064       H  0.43080808  0.07881772  0.46701592     0.08400
H1065       H  0.43288098  0.01610330  0.46612053     0.11900
H1066       H  0.32724026  0.01101025  0.50385543     0.12100
H1067       H  0.32596088  0.07416931  0.50724770     0.08400
C1068       C  0.35489069  0.14051260  0.47862243    -0.10700
C1069       C  0.35781716  0.17628363  0.48198058    -0.10000
C1070       C  0.38575640  0.19127457  0.50208960    -0.00900
C1071       C  0.41028354  0.16987906  0.51955446    -0.11100
C1072       C  0.40756843  0.13419598  0.51584147    -0.09500
H1073       H  0.33348761  0.12960956  0.46238697     0.08400
H1074       H  0.33846670  0.19237762  0.46853077     0.12100
H1075       H  0.43187102  0.18086404  0.53540054     0.11900
H1076       H  0.42705455  0.11829477  0.52925838     0.08400
C1077       C  0.40335036  0.86773818  0.78917158    -0.10700
C1078       C  0.37726719  0.88390056  0.76737065     0.06500
C1079       C  0.34928018  0.89790902  0.78780521    -0.09400
C1080       C  0.34760661  0.89608270  0.82913290    -0.11100
C1081       C  0.37366489  0.87984837  0.85072628    -0.00900
C1082       C  0.40147066  0.86558578  0.83045648    -0.10000
C1083       C  0.37887262  0.88548741  0.72343751     0.06500
H1084       H  0.32893919  0.91069992  0.77179814     0.08400
H1085       H  0.32611034  0.90747064  0.84434606     0.11900
H1086       H  0.42191341  0.85315699  0.84669250     0.12100
H1087       H  0.42497281  0.85637517  0.77421832     0.08400
C1088       C  0.40943206  0.89512837  0.70377792    -0.10700
C1089       C  0.41093199  0.89575417  0.66234410    -0.10000
C1090       C  0.38202940  0.88631705  0.63997608    -0.00900
C1091       C  0.35147037  0.87703423  0.65949475    -0.11100
C1092       C  0.34982971  0.87680889  0.70079643    -0.09500
H1093       H  0.43203244  0.90241625  0.72050169     0.08400
H1094       H  0.43464950  0.90322000  0.64770527     0.12100
H1095       H  0.32893669  0.86971790  0.64264313     0.11900
H1096       H  0.32604019  0.86908609  0.71509539     0.08400
C1097       C  0.35894784  0.85864353  0.20158134    -0.10700
C1098       C  0.38678032  0.87237406  0.22293036     0.06500
C1099       C  0.41531955  0.88563126  0.20197643    -0.09400
C1100       C  0.41550636  0.88598136  0.16051795    -0.11100
C1101       C  0.38735268  0.87268802  0.13944120    -0.00900
C1102       C  0.35934315  0.85861224  0.16026292    -0.10000
C1103       C  0.38558129  0.87331249  0.26686540     0.06500
H1104       H  0.43705338  0.89650458  0.21766203     0.08400
H1105       H  0.43732338  0.89699777  0.14485735     0.11900
H1106       H  0.33743803  0.84825266  0.14442584     0.12100
H1107       H  0.33684548  0.84789182  0.21692146     0.08400
C1108       C  0.35581822  0.88438136  0.28644374    -0.10700
C1109       C  0.35460337  0.88544458  0.32776956    -0.10000
C1110       C  0.38297426  0.87511564  0.35027515    -0.00900
C1111       C  0.41254915  0.86363396  0.33094685    -0.11100
C1112       C  0.41393269  0.86292854  0.28957298    -0.09500
H1113       H  0.33367136  0.89274437  0.26971859     0.08400
H1114       H  0.33164154  0.89450644  0.34226545     0.12100
H1115       H  0.43458244  0.85540109  0.34794688     0.11900
H1116       H  0.43692801  0.85375804  0.27528525     0.08400
C1117       C  0.34699668  0.05755805  0.01088878    -0.10700
C1118       C  0.37686899  0.07718975  0.00283959     0.06500
C1119       C  0.40682952  0.05968574  0.99174637    -0.09400
C1120       C  0.40734837  0.02380528  0.99024634    -0.11100
C1121       C  0.37755856  0.00443698  0.99828996    -0.00900
C1122       C  0.34727676  0.02166559  0.00820522    -0.10000
C1123       C  0.37698723  0.11559650  0.00582496     0.06500
H1124       H  0.42985489  0.07371654  0.98356416     0.08400
H1125       H  0.43092840  0.01109136  0.98228450     0.11900
H1126       H  0.32399239  0.00719590  0.01465270     0.12100
H1127       H  0.32346842  0.06977211  0.01993824     0.08400
C1128       C  0.34736838  0.13477286  0.99716259    -0.10700
C1129       C  0.34801822  0.17071249  0.99902902    -0.10000
C1130       C  0.37848357  0.18844084  0.00852199    -0.00900
C1131       C  0.40783142  0.16949317  0.01786977    -0.11100
C1132       C  0.40699089  0.13358348  0.01709837    -0.09500
H1133       H  0.32379445  0.12216629  0.98809185     0.08400
H1134       H  0.32491118  0.18479828  0.99212371     0.12100
H1135       H  0.43139668  0.18261009  0.02608663     0.11900
H1136       H  0.42988717  0.11993770  0.02566530     0.08400
loop_ 
_geom_bond_atom_site_label_1 
_geom_bond_atom_site_label_2 
_geom_bond_distance 
_geom_bond_site_symmetry_2 
_ccdc_geom_bond_type 
N1            C6   1.355       .  A
N1            C5   1.357       .  A
N1           H33   1.041       .  S
N2            C9   1.356       .  A
N2           C10   1.353       .  A
N3            C8   1.356       .  A
N3            C7   1.354       .  A
N3           H34   1.039       .  S
N4           C11   1.352       .  A
N4           C12   1.354       .  A
C5           C13   1.391       .  A
C5           C21   1.424   1_554  A
C6           C22   1.413       .  A
C6           C14   1.383       .  A
C7           C15   1.387       .  A
C7           C24   1.417       .  A
C8           C23   1.420       .  A
C8           C16   1.388       .  A
C9           C21   1.425       .  A
C9           C17   1.390       .  A
C10          C24   1.415       .  A
C10          C18   1.383       .  A
C11          C19   1.385       .  A
C11          C22   1.413       .  A
C12          C20   1.387       .  A
C12          C23   1.417   1_554  A
C13          C14   1.374       .  A
C13          H25   1.081       .  S
C14          H26   1.083       .  S
C15          C16   1.375       .  A
C15          H27   1.082       .  S
C16          H28   1.081       .  S
C17          C18   1.375       .  A
C17          H29   1.080       .  S
C18          H30   1.083       .  S
C19          C20   1.372       .  A
C19          H31   1.082       .  S
C20          H32   1.081       .  S
C21         C447   1.508       .  S
C22        C1101   1.488       .  S
C23        C1121   1.495   1_565  S
C24        C1081   1.489       .  S
N35          C40   1.356       .  A
N35          C39   1.359       .  A
N35          H67   1.042       .  S
N36          C43   1.358       .  A
N36          C44   1.354       .  A
N37          C42   1.358       .  A
N37          C41   1.354       .  A
N37          H68   1.036       .  S
N38          C45   1.351       .  A
N38          C46   1.353       .  A
C39          C47   1.391       .  A
C39          C55   1.428       .  A
C40          C56   1.414       .  A
C40          C48   1.383       .  A
C41          C49   1.386       .  A
C41          C58   1.418       .  A
C42          C57   1.426       .  A
C42          C50   1.390       .  A
C43          C55   1.427       .  A
C43          C51   1.390       .  A
C44          C58   1.418       .  A
C44          C52   1.383       .  A
C45          C53   1.385       .  A
C45          C56   1.412       .  A
C46          C54   1.388       .  A
C46          C57   1.420       .  A
C47          C48   1.374       .  A
C47          H59   1.081       .  S
C48          H60   1.082       .  S
C49          C50   1.375       .  A
C49          H61   1.082       .  S
C50          H62   1.081       .  S
C51          C52   1.372       .  A
C51          H63   1.079       .  S
C52          H64   1.083       .  S
C53          C54   1.372       .  A
C53          H65   1.082       .  S
C54          H66   1.081       .  S
C55         C462   1.515       .  S
C56        C1110   1.488       .  S
C57        C1061   1.498   1_565  S
C58        C1090   1.490       .  S
N69          C74   1.355       .  A
N69          C73   1.351       .  A
N69         H101   1.042       .  S
N70          C77   1.353       .  A
N70          C78   1.353       .  A
N71          C76   1.354       .  A
N71          C75   1.355       .  A
N71         H102   1.041       .  S
N72          C79   1.350       .  A
N72          C80   1.349       .  A
C73          C81   1.385       .  A
C73          C89   1.413       .  A
C74          C90   1.418       .  A
C74          C82   1.389       .  A
C75          C83   1.389       .  A
C75          C92   1.419   1_556  A
C76          C91   1.417       .  A
C76          C84   1.386       .  A
C77          C89   1.417       .  A
C77          C85   1.386       .  A
C78          C92   1.417       .  A
C78          C86   1.386       .  A
C79          C87   1.387       .  A
C79          C90   1.413   1_556  A
C80          C88   1.386       .  A
C80          C91   1.411       .  A
C81          C82   1.377       .  A
C81          H93   1.082       .  S
C82          H94   1.082       .  S
C83          C84   1.377       .  A
C83          H95   1.080       .  S
C84          H96   1.082       .  S
C85          C86   1.374       .  A
C85          H97   1.082       .  S
C86          H98   1.081       .  S
C87          C88   1.375       .  A
C87          H99   1.082       .  S
C88         H100   1.083       .  S
C89        C1041   1.497       .  S
C90         C421   1.493       .  S
C91        C1021   1.494       .  S
C92        C1130   1.494       .  S
N103        C108   1.353       .  A
N103        C107   1.355       .  A
N103        H135   1.042       .  S
N104        C111   1.357       .  A
N104        C112   1.353       .  A
N105        C110   1.356       .  A
N105        C109   1.351       .  A
N105        H136   1.040       .  S
N106        C113   1.350       .  A
N106        C114   1.351       .  A
C107        C115   1.390       .  A
C107        C123   1.420       .  A
C108        C124   1.410       .  A
C108        C116   1.384       .  A
C109        C117   1.387       .  A
C109        C126   1.414       .  A
C110        C125   1.417       .  A
C110        C118   1.387       .  A
C111        C123   1.426       .  A
C111        C119   1.390       .  A
C112        C126   1.416       .  A
C112        C120   1.384       .  A
C113        C121   1.386       .  A
C113        C124   1.410       .  A
C114        C122   1.386       .  A
C114        C125   1.412       .  A
C115        C116   1.375       .  A
C115        H127   1.081       .  S
C116        H128   1.082       .  S
C117        C118   1.376       .  A
C117        H129   1.082       .  S
C118        H130   1.082       .  S
C119        C120   1.374       .  A
C119        H131   1.080       .  S
C120        H132   1.083       .  S
C121        C122   1.375       .  A
C121        H133   1.082       .  S
C122        H134   1.082       .  S
C123        C434   1.507       .  S
C124       C1050   1.484       .  S
C125       C1070   1.493       .  S
C126       C1030   1.486       .  S
N137        C142   1.354       .  A
N137        C141   1.357       .  A
N137        H169   1.041       .  S
N138        C145   1.356       .  A
N138        C146   1.355       .  A
N139        C144   1.357       .  A
N139        C143   1.356       .  A
N139        H170   1.038       .  S
N140        C147   1.352       .  A
N140        C148   1.353       .  A
C141        C149   1.390       .  A
C141        C157   1.423       .  A
C142        C158   1.414       .  A
C142        C150   1.384       .  A
C143        C151   1.386       .  A
C143        C160   1.420       .  A
C144        C159   1.423   1_556  A
C144        C152   1.388       .  A
C145        C157   1.426   1_556  A
C145        C153   1.389       .  A
C146        C160   1.418       .  A
C146        C154   1.384       .  A
C147        C155   1.386       .  A
C147        C158   1.414       .  A
C148        C156   1.387       .  A
C148        C159   1.417       .  A
C149        C150   1.374       .  A
C149        H161   1.081       .  S
C150        H162   1.083       .  S
C151        C152   1.376       .  A
C151        H163   1.082       .  S
C152        H164   1.081       .  S
C153        C154   1.373       .  A
C153        H165   1.080       .  S
C154        H166   1.082       .  S
C155        C156   1.372       .  A
C155        H167   1.082       .  S
C156        H168   1.081       .  S
C157        C506   1.508       .  S
C158        C981   1.490       .  S
C159       C1001   1.495       .  S
C160        C970   1.495       .  S
N171        C176   1.355       .  A
N171        C175   1.358       .  A
N171        H203   1.042       .  S
N172        C179   1.353       .  A
N172        C180   1.353       .  A
N173        C178   1.354       .  A
N173        C177   1.352       .  A
N173        H204   1.041       .  S
N174        C181   1.352       .  A
N174        C182   1.354       .  A
C175        C183   1.389       .  A
C175        C191   1.426       .  A
C176        C192   1.420       .  A
C176        C184   1.385       .  A
C177        C185   1.386       .  A
C177        C194   1.411       .  A
C178        C193   1.420       .  A
C178        C186   1.389       .  A
C179        C191   1.421       .  A
C179        C187   1.390       .  A
C180        C194   1.410       .  A
C180        C188   1.383       .  A
C181        C189   1.386       .  A
C181        C192   1.415       .  A
C182        C190   1.386       .  A
C182        C193   1.418       .  A
C183        C184   1.381       .  A
C183        H195   1.081       .  S
C184        H196   1.082       .  S
C185        C186   1.379       .  A
C185        H197   1.082       .  S
C186        H198   1.082       .  S
C187        C188   1.371       .  A
C187        H199   1.081       .  S
C188        H200   1.082       .  S
C189        C190   1.376       .  A
C189        H201   1.082       .  S
C190        H202   1.082       .  S
C191        C519   1.509       .  S
C192        C961   1.496       .  S
C193        C950   1.501       .  S
C194        C990   1.483       .  S
N205        C210   1.354       .  A
N205        C209   1.358       .  A
N205        H237   1.042       .  S
N206        C213   1.354       .  A
N206        C214   1.352       .  A
N207        C212   1.356       .  A
N207        C211   1.353       .  A
N207        H238   1.041       .  S
N208        C215   1.351       .  A
N208        C216   1.353       .  A
C209        C217   1.391       .  A
C209        C225   1.426   1_554  A
C210        C226   1.415       .  A
C210        C218   1.383       .  A
C211        C219   1.387       .  A
C211        C228   1.417       .  A
C212        C227   1.419   1_556  A
C212        C220   1.387       .  A
C213        C225   1.417       .  A
C213        C221   1.388       .  A
C214        C228   1.413       .  A
C214        C222   1.385       .  A
C215        C223   1.387       .  A
C215        C226   1.414       .  A
C216        C224   1.385       .  A
C216        C227   1.413       .  A
C217        C218   1.375       .  A
C217        H229   1.080       .  S
C218        H230   1.082       .  S
C219        C220   1.378       .  A
C219        H231   1.082       .  S
C220        H232   1.082       .  S
C221        C222   1.373       .  A
C221        H233   1.081       .  S
C222        H234   1.082       .  S
C223        C224   1.374       .  A
C223        H235   1.082       .  S
C224        H236   1.082       .  S
C225        C450   1.507       .  S
C226        C921   1.490       .  S
C227       C1010   1.497       .  S
C228        C910   1.493       .  S
N239        C244   1.356       .  A
N239        C243   1.353       .  A
N239        H271   1.044       .  S
N240        C247   1.352       .  A
N240        C248   1.355       .  A
N241        C246   1.352       .  A
N241        C245   1.353       .  A
N241        H272   1.043       .  S
N242        C249   1.356       .  A
N242        C250   1.353       .  A
C243        C251   1.386       .  A
C243        C259   1.415       .  A
C244        C260   1.423       .  A
C244        C252   1.389       .  A
C245        C253   1.385       .  A
C245        C262   1.414       .  A
C246        C261   1.419       .  A
C246        C254   1.389       .  A
C247        C259   1.415       .  A
C247        C255   1.387       .  A
C248        C262   1.417       .  A
C248        C256   1.386       .  A
C249        C257   1.389       .  A
C249        C260   1.422       .  A
C250        C258   1.384       .  A
C250        C261   1.415       .  A
C251        C252   1.373       .  A
C251        H263   1.081       .  S
C252        H264   1.080       .  S
C253        C254   1.377       .  A
C253        H265   1.082       .  S
C254        H266   1.082       .  S
C255        C256   1.375       .  A
C255        H267   1.082       .  S
C256        H268   1.082       .  S
C257        C258   1.372       .  A
C257        H269   1.081       .  S
C258        H270   1.082       .  S
C259        C930   1.486       .  S
C260        C464   1.508       .  S
C261        C901   1.493       .  S
C262        C941   1.493       .  S
N273        C278   1.356       .  A
N273        C277   1.356       .  A
N273        H305   1.042       .  S
N274        C281   1.353       .  A
N274        C282   1.351       .  A
N275        C280   1.354       .  A
N275        C279   1.356       .  A
N275        H306   1.040       .  S
N276        C283   1.356       .  A
N276        C284   1.355       .  A
C277        C285   1.389       .  A
C277        C293   1.423   1_554  A
C278        C294   1.418       .  A
C278        C286   1.385       .  A
C279        C287   1.387       .  A
C279        C296   1.421       .  A
C280        C295   1.418       .  A
C280        C288   1.387       .  A
C281        C293   1.416       .  A
C281        C289   1.388       .  A
C282        C296   1.413       .  A
C282        C290   1.385       .  A
C283        C291   1.386       .  A
C283        C294   1.419       .  A
C284        C292   1.387       .  A
C284        C295   1.419   1_554  A
C285        C286   1.377       .  A
C285        H297   1.082       .  S
C286        H298   1.083       .  S
C287        C288   1.377       .  A
C287        H299   1.082       .  S
C288        H300   1.080       .  S
C289        C290   1.374       .  A
C289        H301   1.081       .  S
C290        H302   1.082       .  S
C291        C292   1.372       .  A
C291        H303   1.081       .  S
C292        H304   1.081       .  S
C293        C477   1.501       .  S
C294        C861   1.505       .  S
C295        C881   1.496       .  S
C296        C841   1.497       .  S
N307        C312   1.355       .  A
N307        C311   1.360       .  A
N307        H339   1.041       .  S
N308        C315   1.352       .  A
N308        C316   1.351       .  A
N309        C314   1.352       .  A
N309        C313   1.353       .  A
N309        H340   1.040       .  S
N310        C317   1.354       .  A
N310        C318   1.356       .  A
C311        C319   1.390       .  A
C311        C327   1.428       .  A
C312        C328   1.418       .  A
C312        C320   1.384       .  A
C313        C321   1.387       .  A
C313        C330   1.414       .  A
C314        C329   1.415       .  A
C314        C322   1.387       .  A
C315        C327   1.420       .  A
C315        C323   1.390       .  A
C316        C330   1.409       .  A
C316        C324   1.383       .  A
C317        C325   1.385       .  A
C317        C328   1.417       .  A
C318        C326   1.386       .  A
C318        C329   1.420       .  A
C319        C320   1.378       .  A
C319        H331   1.080       .  S
C320        H332   1.082       .  S
C321        C322   1.378       .  A
C321        H333   1.082       .  S
C322        H334   1.082       .  S
C323        C324   1.373       .  A
C323        H335   1.081       .  S
C324        H336   1.082       .  S
C325        C326   1.375       .  A
C325        H337   1.082       .  S
C326        H338   1.081       .  S
C327        C490   1.508       .  S
C328        C870   1.495       .  S
C329        C821   1.499       .  S
C330        C850   1.484       .  S
N341        C346   1.359       .  A
N341        C345   1.353       .  A
N341        H373   1.041       .  S
N342        C349   1.353       .  A
N342        C350   1.355       .  A
N343        C348   1.354       .  A
N343        C347   1.356       .  A
N343        H374   1.039       .  S
N344        C351   1.355       .  A
N344        C352   1.352       .  A
C345        C353   1.384       .  A
C345        C361   1.415       .  A
C346        C362   1.426       .  A
C346        C354   1.390       .  A
C347        C355   1.389       .  A
C347        C364   1.422   1_556  A
C348        C363   1.415       .  A
C348        C356   1.385       .  A
C349        C361   1.416       .  A
C349        C357   1.386       .  A
C350        C364   1.419       .  A
C350        C358   1.387       .  A
C351        C359   1.390       .  A
C351        C362   1.422   1_556  A
C352        C360   1.383       .  A
C352        C363   1.411       .  A
C353        C354   1.378       .  A
C353        H365   1.082       .  S
C354        H366   1.081       .  S
C355        C356   1.376       .  A
C355        H367   1.081       .  S
C356        H368   1.082       .  S
C357        C358   1.373       .  A
C357        H369   1.082       .  S
C358        H370   1.081       .  S
C359        C360   1.373       .  A
C359        H371   1.081       .  S
C360        H372   1.083       .  S
C361        C801   1.488       .  S
C362        C504   1.509       .  S
C363        C781   1.488       .  S
C364        C890   1.497   1_565  S
N375        C380   1.356       .  A
N375        C379   1.358       .  A
N375        H407   1.042       .  S
N376        C383   1.356       .  A
N376        C384   1.353       .  A
N377        C382   1.357       .  A
N377        C381   1.355       .  A
N377        H408   1.037       .  S
N378        C385   1.352       .  A
N378        C386   1.353       .  A
C379        C387   1.391       .  A
C379        C395   1.427       .  A
C380        C396   1.414       .  A
C380        C388   1.383       .  A
C381        C389   1.385       .  A
C381        C398   1.417       .  A
C382        C397   1.423       .  A
C382        C390   1.389       .  A
C383        C395   1.423       .  A
C383        C391   1.390       .  A
C384        C398   1.414       .  A
C384        C392   1.383       .  A
C385        C393   1.385       .  A
C385        C396   1.413       .  A
C386        C394   1.388       .  A
C386        C397   1.420       .  A
C387        C388   1.374       .  A
C387        H399   1.081       .  S
C388        H400   1.083       .  S
C389        C390   1.375       .  A
C389        H401   1.082       .  S
C390        H402   1.081       .  S
C391        C392   1.372       .  A
C391        H403   1.079       .  S
C392        H404   1.082       .  S
C393        C394   1.374       .  A
C393        H405   1.082       .  S
C394        H406   1.082       .  S
C395        C517   1.510       .  S
C396        C810   1.490       .  S
C397        C830   1.496   1_565  S
C398        C790   1.489       .  S
O409       Cu417   2.012       .  S
O409        C419   1.278   1_556  A
O410       Cu417   2.003       .  S
O410        C420   1.277       .  A
O411       Cu417   2.022       .  S
O411        C421   1.280   1_556  A
O412       Cu417   2.003       .  S
O412        C422   1.277       .  A
O413       Cu418   2.006       .  S
O413        C422   1.277   1_554  A
O414       Cu418   1.997       .  S
O414        C421   1.276       .  A
O415       Cu418   2.005       .  S
O415        C420   1.277   1_554  A
O416       Cu418   2.023       .  S
O416        C419   1.279       .  A
Cu417      Cu418   2.366   1_556  S
C419        C541   1.510       .  S
C420        C476   1.462       .  S
C422        C448   1.464       .  S
O423       Cu431   2.027       .  S
O423        C433   1.280       .  A
O424       Cu431   2.021       .  S
O424        C434   1.281       .  A
O425       Cu431   2.016       .  S
O425        C435   1.279       .  A
O426       Cu431   2.001       .  S
O426        C436   1.275       .  A
O427       Cu432   2.017       .  S
O427        C436   1.280       .  A
O428       Cu432   2.015       .  S
O428        C435   1.278       .  A
O429       Cu432   2.017       .  S
O429        C434   1.277       .  A
O430       Cu432   1.998       .  S
O430        C433   1.276       .  A
Cu431      Cu432   2.363       .  S
C433        C461   1.470       .  S
C435        C575   1.502       .  S
C436        C492   1.467       .  S
O437       Cu445   2.026       .  S
O437        C447   1.281   1_554  A
O438       Cu445   2.003       .  S
O438        C448   1.277   1_554  A
O439       Cu445   2.009       .  S
O439        C449   1.277   1_554  A
O440       Cu445   1.997       .  S
O440        C450   1.275   1_554  A
O441       Cu446   2.037       .  S
O441        C450   1.282       .  A
O442       Cu446   2.026       .  S
O442        C449   1.280       .  A
O443       Cu446   2.007       .  S
O443        C448   1.277       .  A
O444       Cu446   2.013       .  S
O444        C447   1.277       .  A
Cu445      Cu446   2.363   1_554  S
C449        C505   1.473       .  S
O451       Cu459   2.020       .  S
O451        C461   1.278       .  A
O452       Cu459   2.015       .  S
O452        C462   1.278       .  A
O453       Cu459   2.020       .  S
O453        C463   1.278       .  A
O454       Cu459   2.032       .  S
O454        C464   1.281       .  A
O455       Cu460   2.004       .  S
O455        C464   1.276       .  A
O456       Cu460   2.010       .  S
O456        C463   1.278       .  A
O457       Cu460   2.033       .  S
O457        C462   1.279       .  A
O458       Cu460   2.006       .  S
O458        C461   1.278       .  A
Cu459      Cu460   2.360       .  S
C463        C520   1.472       .  S
O465       Cu473   2.010       .  S
O465        C475   1.279   1_554  A
O466       Cu473   2.009       .  S
O466        C476   1.278   1_554  A
O467       Cu473   2.009       .  S
O467        C477   1.278   1_554  A
O468       Cu473   2.015       .  S
O468        C478   1.278   1_554  A
O469       Cu474   2.018       .  S
O469        C478   1.278       .  A
O470       Cu474   2.027       .  S
O470        C477   1.281       .  A
O471       Cu474   1.998       .  S
O471        C476   1.276       .  A
O472       Cu474   2.012       .  S
O472        C475   1.277       .  A
Cu473      Cu474   2.369   1_554  S
C475        C609   1.500       .  S
C478        C503   1.473       .  S
O479       Cu487   2.001       .  S
O479        C489   1.276       .  A
O480       Cu487   2.015       .  S
O480        C490   1.280       .  A
O481       Cu487   2.011       .  S
O481        C491   1.278       .  A
O482       Cu487   1.996       .  S
O482        C492   1.275       .  A
O483       Cu488   2.023       .  S
O483        C492   1.280       .  A
O484       Cu488   2.022       .  S
O484        C491   1.279       .  A
O485       Cu488   2.026       .  S
O485        C490   1.279       .  A
O486       Cu488   2.027       .  S
O486        C489   1.280       .  A
Cu487      Cu488   2.366       .  S
C489        C518   1.470       .  S
C491        C643   1.506       .  S
O493       Cu501   2.012       .  S
O493        C503   1.278   1_554  A
O494       Cu501   2.027       .  S
O494        C504   1.279       .  A
O495       Cu501   2.011       .  S
O495        C505   1.278   1_554  A
O496       Cu501   2.024       .  S
O496        C506   1.280       .  A
O497       Cu502   2.017       .  S
O497        C506   1.278   1_556  A
O498       Cu502   2.023       .  S
O498        C505   1.279       .  A
O499       Cu502   2.018       .  S
O499        C504   1.279   1_556  A
O500       Cu502   2.022       .  S
O500        C503   1.279       .  A
Cu501      Cu502   2.365   1_554  S
O507       Cu515   2.026       .  S
O507        C517   1.279       .  A
O508       Cu515   2.012       .  S
O508        C518   1.279       .  A
O509       Cu515   2.026       .  S
O509        C519   1.278       .  A
O510       Cu515   2.006       .  S
O510        C520   1.277       .  A
O511       Cu516   2.024       .  S
O511        C520   1.279       .  A
O512       Cu516   2.012       .  S
O512        C519   1.279       .  A
O513       Cu516   2.015       .  S
O513        C518   1.277       .  A
O514       Cu516   2.006       .  S
O514        C517   1.277       .  A
Cu515      Cu516   2.363       .  S
N521        C526   1.355       .  A
N521        C525   1.358       .  A
N521        H553   1.042       .  S
N522        C529   1.357       .  A
N522        C530   1.354       .  A
N523        C528   1.356       .  A
N523        C527   1.351       .  A
N523        H554   1.040       .  S
N524        C531   1.350       .  A
N524        C532   1.352       .  A
C525        C533   1.390       .  A
C525        C541   1.426   1_556  A
C526        C542   1.416       .  A
C526        C534   1.384       .  A
C527        C535   1.386       .  A
C527        C544   1.412       .  A
C528        C543   1.418       .  A
C528        C536   1.387       .  A
C529        C541   1.424       .  A
C529        C537   1.391       .  A
C530        C544   1.412       .  A
C530        C538   1.382       .  A
C531        C539   1.387       .  A
C531        C542   1.413       .  A
C532        C540   1.385       .  A
C532        C543   1.413   1_556  A
C533        C534   1.376       .  A
C533        H545   1.081       .  S
C534        H546   1.082       .  S
C535        C536   1.377       .  A
C535        H547   1.082       .  S
C536        H548   1.082       .  S
C537        C538   1.370       .  A
C537        H549   1.079       .  S
C538        H550   1.083       .  S
C539        C540   1.372       .  A
C539        H551   1.081       .  S
C540        H552   1.082       .  S
C542        C730   1.486       .  S
C543        C761   1.496   1_554  S
C544        C750   1.485       .  S
N555        C560   1.355       .  A
N555        C559   1.353       .  A
N555        H587   1.043       .  S
N556        C563   1.355       .  A
N556        C564   1.353       .  A
N557        C562   1.354       .  A
N557        C561   1.352       .  A
N557        H588   1.041       .  S
N558        C565   1.351       .  A
N558        C566   1.351       .  A
C559        C567   1.390       .  A
C559        C575   1.420       .  A
C560        C576   1.415       .  A
C560        C568   1.385       .  A
C561        C569   1.388       .  A
C561        C578   1.415       .  A
C562        C577   1.417       .  A
C562        C570   1.387       .  A
C563        C575   1.422       .  A
C563        C571   1.389       .  A
C564        C578   1.416       .  A
C564        C572   1.385       .  A
C565        C573   1.385       .  A
C565        C576   1.410       .  A
C566        C574   1.387       .  A
C566        C577   1.414       .  A
C567        C568   1.378       .  A
C567        H579   1.082       .  S
C568        H580   1.082       .  S
C569        C570   1.378       .  A
C569        H581   1.082       .  S
C570        H582   1.082       .  S
C571        C572   1.373       .  A
C571        H583   1.080       .  S
C572        H584   1.081       .  S
C573        C574   1.372       .  A
C573        H585   1.082       .  S
C574        H586   1.082       .  S
C576        C741   1.496       .  S
C577        C701   1.497       .  S
C578        C721   1.487       .  S
N589        C594   1.353       .  A
N589        C593   1.354       .  A
N589        H621   1.041       .  S
N590        C597   1.355       .  A
N590        C598   1.351       .  A
N591        C596   1.357       .  A
N591        C595   1.355       .  A
N591        H622   1.039       .  S
N592        C599   1.352       .  A
N592        C600   1.353       .  A
C593        C601   1.390       .  A
C593        C609   1.420   1_554  A
C594        C610   1.410       .  A
C594        C602   1.384       .  A
C595        C603   1.386       .  A
C595        C612   1.419       .  A
C596        C611   1.422       .  A
C596        C604   1.388       .  A
C597        C609   1.420       .  A
C597        C605   1.389       .  A
C598        C612   1.414       .  A
C598        C606   1.384       .  A
C599        C607   1.384       .  A
C599        C610   1.412       .  A
C600        C608   1.388       .  A
C600        C611   1.418   1_554  A
C601        C602   1.375       .  A
C601        H613   1.082       .  S
C602        H614   1.083       .  S
C603        C604   1.376       .  A
C603        H615   1.082       .  S
C604        H616   1.081       .  S
C605        C606   1.373       .  A
C605        H617   1.081       .  S
C606        H618   1.082       .  S
C607        C608   1.375       .  A
C607        H619   1.082       .  S
C608        H620   1.082       .  S
C610        C681   1.486       .  S
C611        C770   1.495       .  S
C612        C661   1.493       .  S
N623        C628   1.356       .  A
N623        C627   1.357       .  A
N623        H655   1.042       .  S
N624        C631   1.354       .  A
N624        C632   1.353       .  A
N625        C630   1.351       .  A
N625        C629   1.353       .  A
N625        H656   1.040       .  S
N626        C633   1.352       .  A
N626        C634   1.353       .  A
C627        C635   1.390       .  A
C627        C643   1.425       .  A
C628        C644   1.418       .  A
C628        C636   1.385       .  A
C629        C637   1.388       .  A
C629        C646   1.414       .  A
C630        C645   1.412       .  A
C630        C638   1.386       .  A
C631        C643   1.423       .  A
C631        C639   1.391       .  A
C632        C646   1.413       .  A
C632        C640   1.383       .  A
C633        C641   1.387       .  A
C633        C644   1.415       .  A
C634        C642   1.385       .  A
C634        C645   1.413       .  A
C635        C636   1.378       .  A
C635        H647   1.081       .  S
C636        H648   1.083       .  S
C637        C638   1.376       .  A
C637        H649   1.082       .  S
C638        H650   1.082       .  S
C639        C640   1.372       .  A
C639        H651   1.080       .  S
C640        H652   1.082       .  S
C641        C642   1.374       .  A
C641        H653   1.082       .  S
C642        H654   1.082       .  S
C644        C690   1.498       .  S
C645        C710   1.486       .  S
C646        C670   1.487       .  S
C657        C658   1.406       .  A
C657        C662   1.398       .  A
C657        H667   1.083       .  S
C658        C659   1.407       .  A
C658        C663   1.489       .  S
C659        C660   1.401       .  A
C659        H664   1.083       .  S
C660        C661   1.405       .  A
C660        H665   1.083       .  S
C661        C662   1.404       .  A
C662        H666   1.083       .  S
C663        C668   1.407       .  A
C663        C672   1.407       .  A
C668        C669   1.401       .  A
C668        H673   1.083       .  S
C669        C670   1.403       .  A
C669        H674   1.083       .  S
C670        C671   1.402       .  A
C671        C672   1.398       .  A
C671        H675   1.084       .  S
C672        H676   1.082       .  S
C677        C678   1.409       .  A
C677        C682   1.398       .  A
C677        H687   1.082       .  S
C678        C679   1.412       .  A
C678        C683   1.498       .  S
C679        C680   1.402       .  A
C679        H684   1.082       .  S
C680        C681   1.402       .  A
C680        H685   1.083       .  S
C681        C682   1.401       .  A
C682        H686   1.083       .  S
C683        C688   1.410       .  A
C683        C692   1.408       .  A
C688        C689   1.401       .  A
C688        H693   1.082       .  S
C689        C690   1.405       .  A
C689        H694   1.083       .  S
C690        C691   1.405       .  A
C691        C692   1.400       .  A
C691        H695   1.083       .  S
C692        H696   1.082       .  S
C697        C698   1.408       .  A
C697        C702   1.394   1_655  A
C697        H707   1.081       .  S
C698        C699   1.412       .  A
C698        C703   1.499       .  S
C699        C700   1.401   1_655  A
C699        H704   1.081       .  S
C700        C701   1.405       .  A
C700        H705   1.083       .  S
C701        C702   1.404       .  A
C702        H706   1.083       .  S
C703        C708   1.412       .  A
C703        C712   1.410       .  A
C708        C709   1.397       .  A
C708        H713   1.078       .  S
C709        C710   1.398       .  A
C709        H714   1.082       .  S
C710        C711   1.402       .  A
C711        C712   1.399       .  A
C711        H715   1.083       .  S
C712        H716   1.081       .  S
C717        C718   1.406       .  A
C717        C722   1.399       .  A
C717        H727   1.083       .  S
C718        C719   1.404       .  A
C718        C723   1.485       .  S
C719        C720   1.399       .  A
C719        H724   1.080       .  S
C720        C721   1.402       .  A
C720        H725   1.082       .  S
C721        C722   1.403       .  A
C722        H726   1.083       .  S
C723        C728   1.404       .  A
C723        C732   1.408       .  A
C728        C729   1.397       .  A
C728        H733   1.083       .  S
C729        C730   1.403       .  A
C729        H734   1.083       .  S
C730        C731   1.402       .  A
C731        C732   1.400       .  A
C731        H735   1.083       .  S
C732        H736   1.083       .  S
C737        C738   1.409       .  A
C737        C742   1.399       .  A
C737        H747   1.082       .  S
C738        C739   1.408       .  A
C738        C743   1.494       .  S
C739        C740   1.398       .  A
C739        H744   1.082       .  S
C740        C741   1.406       .  A
C740        H745   1.083       .  S
C741        C742   1.405       .  A
C742        H746   1.083       .  S
C743        C748   1.410       .  A
C743        C752   1.409       .  A
C748        C749   1.398       .  A
C748        H753   1.082       .  S
C749        C750   1.400       .  A
C749        H754   1.082       .  S
C750        C751   1.402       .  A
C751        C752   1.399       .  A
C751        H755   1.083       .  S
C752        H756   1.082       .  S
C757        C758   1.404       .  A
C757        C762   1.402   1_655  A
C757        H767   1.083       .  S
C758        C759   1.407   1_556  A
C758        C763   1.488       .  S
C759        C760   1.402   1_655  A
C759        H764   1.081       .  S
C760        C761   1.404   1_554  A
C760        H765   1.083       .  S
C761        C762   1.407       .  A
C762        H766   1.083       .  S
C763        C768   1.403       .  A
C763        C772   1.406   1_556  A
C768        C769   1.400       .  A
C768        H773   1.080       .  S
C769        C770   1.403       .  A
C769        H774   1.083       .  S
C770        C771   1.406       .  A
C771        C772   1.404   1_556  A
C771        H775   1.083   1_556  S
C772        H776   1.083       .  S
C777        C778   1.407       .  A
C777        C782   1.402       .  A
C777        H787   1.083       .  S
C778        C779   1.405       .  A
C778        C783   1.485       .  S
C779        C780   1.399       .  A
C779        H784   1.083       .  S
C780        C781   1.403       .  A
C780        H785   1.083       .  S
C781        C782   1.404       .  A
C782        H786   1.083       .  S
C783        C788   1.405       .  A
C783        C792   1.406       .  A
C788        C789   1.401       .  A
C788        H793   1.082       .  S
C789        C790   1.404       .  A
C789        H794   1.083       .  S
C790        C791   1.403       .  A
C791        C792   1.400       .  A
C791        H795   1.083       .  S
C792        H796   1.083       .  S
C797        C798   1.407       .  A
C797        C802   1.401       .  A
C797        H807   1.083       .  S
C798        C799   1.406       .  A
C798        C803   1.486       .  S
C799        C800   1.401       .  A
C799        H804   1.083       .  S
C800        C801   1.404       .  A
C800        H805   1.083       .  S
C801        C802   1.403       .  A
C802        H806   1.083       .  S
C803        C808   1.405       .  A
C803        C812   1.407       .  A
C808        C809   1.400       .  A
C808        H813   1.083       .  S
C809        C810   1.403       .  A
C809        H814   1.083       .  S
C810        C811   1.404       .  A
C811        C812   1.402       .  A
C811        H815   1.083       .  S
C812        H816   1.083       .  S
C817        C818   1.407       .  A
C817        C822   1.402       .  A
C817        H827   1.080       .  S
C818        C819   1.404       .  A
C818        C823   1.490       .  S
C819        C820   1.402       .  A
C819        H824   1.083       .  S
C820        C821   1.408       .  A
C820        H825   1.083       .  S
C821        C822   1.404       .  A
C822        H826   1.083       .  S
C823        C828   1.404       .  A
C823        C832   1.407       .  A
C828        C829   1.399       .  A
C828        H833   1.079       .  S
C829        C830   1.402       .  A
C829        H834   1.083       .  S
C830        C831   1.406       .  A
C831        C832   1.404       .  A
C831        H835   1.083       .  S
C832        H836   1.083       .  S
C837        C838   1.409       .  A
C837        C842   1.399       .  A
C837        H847   1.082       .  S
C838        C839   1.411       .  A
C838        C843   1.499       .  S
C839        C840   1.401       .  A
C839        H844   1.082       .  S
C840        C841   1.404       .  A
C840        H845   1.083       .  S
C841        C842   1.405       .  A
C842        H846   1.083       .  S
C843        C848   1.411       .  A
C843        C852   1.411       .  A
C848        C849   1.399       .  A
C848        H853   1.081       .  S
C849        C850   1.399       .  A
C849        H854   1.084       .  S
C850        C851   1.400       .  A
C851        C852   1.401       .  A
C851        H855   1.083       .  S
C852        H856   1.082       .  S
C857        C858   1.415       .  A
C857        C862   1.405       .  A
C857        H867   1.079       .  S
C858        C859   1.413       .  A
C858        C863   1.515       .  S
C859        C860   1.400       .  A
C859        H864   1.080       .  S
C860        C861   1.404       .  A
C860        H865   1.083       .  S
C861        C862   1.405       .  A
C862        H866   1.083       .  S
C863        C868   1.415       .  A
C863        C872   1.415       .  A
C868        C869   1.405       .  A
C868        H873   1.080       .  S
C869        C870   1.402       .  A
C869        H874   1.082       .  S
C870        C871   1.400       .  A
C871        C872   1.400       .  A
C871        H875   1.083       .  S
C872        H876   1.079       .  S
C877        C878   1.408       .  A
C877        C882   1.401       .  A
C877        H887   1.082       .  S
C878        C879   1.409   1_554  A
C878        C883   1.498       .  S
C879        C880   1.402       .  A
C879        H884   1.081       .  S
C880        C881   1.402       .  A
C880        H885   1.082       .  S
C881        C882   1.406   1_556  A
C882        H886   1.083       .  S
C883        C888   1.409   1_554  A
C883        C892   1.408       .  A
C888        C889   1.403   1_556  A
C888        H893   1.082       .  S
C889        C890   1.405       .  A
C889        H894   1.083   1_554  S
C890        C891   1.403       .  A
C891        C892   1.401       .  A
C891        H895   1.083       .  S
C892        H896   1.081       .  S
C897        C898   1.401       .  A
C897        C902   1.397       .  A
C897        H907   1.083       .  S
C898        C899   1.402       .  A
C898        C903   1.473       .  S
C899        C900   1.400       .  A
C899        H904   1.083       .  S
C900        C901   1.407       .  A
C900        H905   1.083       .  S
C901        C902   1.405       .  A
C902        H906   1.083       .  S
C903        C908   1.400       .  A
C903        C912   1.403       .  A
C908        C909   1.397       .  A
C908        H913   1.083       .  S
C909        C910   1.407       .  A
C909        H914   1.083       .  S
C910        C911   1.405       .  A
C911        C912   1.399       .  A
C911        H915   1.081       .  S
C912        H916   1.083       .  S
C917        C918   1.409       .  A
C917        C922   1.400       .  A
C917        H927   1.082       .  S
C918        C919   1.408       .  A
C918        C923   1.493       .  S
C919        C920   1.397       .  A
C919        H924   1.082       .  S
C920        C921   1.403       .  A
C920        H925   1.083       .  S
C921        C922   1.403       .  A
C922        H926   1.083       .  S
C923        C928   1.408       .  A
C923        C932   1.409       .  A
C928        C929   1.399       .  A
C928        H933   1.080       .  S
C929        C930   1.400       .  A
C929        H934   1.081       .  S
C930        C931   1.402       .  A
C931        C932   1.399       .  A
C931        H935   1.083       .  S
C932        H936   1.082       .  S
C937        C938   1.411       .  A
C937        C942   1.402   1_655  A
C937        H947   1.082       .  S
C938        C939   1.411       .  A
C938        C943   1.504       .  S
C939        C940   1.402   1_655  A
C939        H944   1.079       .  S
C940        C941   1.399       .  A
C940        H945   1.079       .  S
C941        C942   1.403       .  A
C942        H946   1.083       .  S
C943        C948   1.410       .  A
C943        C952   1.410       .  A
C948        C949   1.402       .  A
C948        H953   1.082       .  S
C949        C950   1.406       .  A
C949        H954   1.083       .  S
C950        C951   1.404       .  A
C951        C952   1.401       .  A
C951        H955   1.082       .  S
C952        H956   1.081       .  S
C957        C958   1.406       .  A
C957        C962   1.401       .  A
C957        H967   1.083       .  S
C958        C959   1.408       .  A
C958        C963   1.493       .  S
C959        C960   1.404       .  A
C959        H964   1.083       .  S
C960        C961   1.405       .  A
C960        H965   1.083       .  S
C961        C962   1.406       .  A
C962        H966   1.083       .  S
C963        C968   1.407       .  A
C963        C972   1.407       .  A
C968        C969   1.404       .  A
C968        H973   1.080       .  S
C969        C970   1.404       .  A
C969        H974   1.083       .  S
C970        C971   1.404       .  A
C971        C972   1.401       .  A
C971        H975   1.083       .  S
C972        H976   1.083       .  S
C977        C978   1.407       .  A
C977        C982   1.400       .  A
C977        H987   1.083       .  S
C978        C979   1.407       .  A
C978        C983   1.487       .  S
C979        C980   1.398       .  A
C979        H984   1.083       .  S
C980        C981   1.403       .  A
C980        H985   1.083       .  S
C981        C982   1.404       .  A
C982        H986   1.083       .  S
C983        C988   1.408       .  A
C983        C992   1.406       .  A
C988        C989   1.401       .  A
C988        H993   1.083       .  S
C989        C990   1.403       .  A
C989        H994   1.083       .  S
C990        C991   1.400       .  A
C991        C992   1.396       .  A
C991        H995   1.083       .  S
C992        H996   1.081       .  S
C997        C998   1.405       .  A
C997       C1002   1.404       .  A
C997       H1007   1.083   1_554  S
C998        C999   1.403       .  A
C998       C1003   1.487       .  S
C999       C1000   1.399       .  A
C999       H1004   1.079       .  S
C1000      C1001   1.402       .  A
C1000      H1005   1.083       .  S
C1001      C1002   1.407       .  A
C1002      H1006   1.083   1_554  S
C1003      C1008   1.406   1_554  A
C1003      C1012   1.404   1_655  A
C1008      C1009   1.401   1_655  A
C1008      H1013   1.081       .  S
C1009      C1010   1.404   1_556  A
C1009      H1014   1.083       .  S
C1010      C1011   1.408       .  A
C1011      C1012   1.403       .  A
C1011      H1015   1.083       .  S
C1012      H1016   1.083   1_455  S
C1017      C1018   1.411       .  A
C1017      C1022   1.401       .  A
C1017      H1027   1.081       .  S
C1018      C1019   1.409       .  A
C1018      C1023   1.497       .  S
C1019      C1020   1.394       .  A
C1019      H1024   1.081       .  S
C1020      C1021   1.403       .  A
C1020      H1025   1.083       .  S
C1021      C1022   1.405       .  A
C1022      H1026   1.083       .  S
C1023      C1028   1.410       .  A
C1023      C1032   1.411       .  A
C1028      C1029   1.400       .  A
C1028      H1033   1.081       .  S
C1029      C1030   1.402       .  A
C1029      H1034   1.083       .  S
C1030      C1031   1.399       .  A
C1031      C1032   1.395       .  A
C1031      H1035   1.083       .  S
C1032      H1036   1.081       .  S
C1037      C1038   1.412       .  A
C1037      C1042   1.399       .  A
C1037      H1047   1.080       .  S
C1038      C1039   1.413       .  A
C1038      C1043   1.507       .  S
C1039      C1040   1.399       .  A
C1039      H1044   1.080       .  S
C1040      C1041   1.403       .  A
C1040      H1045   1.083       .  S
C1041      C1042   1.404       .  A
C1042      H1046   1.083       .  S
C1043      C1048   1.413       .  A
C1043      C1052   1.414       .  A
C1048      C1049   1.399       .  A
C1048      H1053   1.080       .  S
C1049      C1050   1.398       .  A
C1049      H1054   1.083       .  S
C1050      C1051   1.399       .  A
C1051      C1052   1.400       .  A
C1051      H1055   1.083       .  S
C1052      H1056   1.080       .  S
C1057      C1058   1.406       .  A
C1057      C1062   1.405       .  A
C1057      H1067   1.083       .  S
C1058      C1059   1.403       .  A
C1058      C1063   1.489       .  S
C1059      C1060   1.397       .  A
C1059      H1064   1.078       .  S
C1060      C1061   1.401       .  A
C1060      H1065   1.082       .  S
C1061      C1062   1.409       .  A
C1062      H1066   1.083       .  S
C1063      C1068   1.404       .  A
C1063      C1072   1.408       .  A
C1068      C1069   1.403       .  A
C1068      H1073   1.083       .  S
C1069      C1070   1.407       .  A
C1069      H1074   1.083       .  S
C1070      C1071   1.402       .  A
C1071      C1072   1.400       .  A
C1071      H1075   1.083       .  S
C1072      H1076   1.082       .  S
C1077      C1078   1.406       .  A
C1077      C1082   1.400       .  A
C1077      H1087   1.082       .  S
C1078      C1079   1.407       .  A
C1078      C1083   1.488       .  S
C1079      C1080   1.401       .  A
C1079      H1084   1.083       .  S
C1080      C1081   1.403       .  A
C1080      H1085   1.083       .  S
C1081      C1082   1.403       .  A
C1082      H1086   1.083       .  S
C1083      C1088   1.408       .  A
C1083      C1092   1.406       .  A
C1088      C1089   1.403       .  A
C1088      H1093   1.083       .  S
C1089      C1090   1.403       .  A
C1089      H1094   1.083       .  S
C1090      C1091   1.403       .  A
C1091      C1092   1.399       .  A
C1091      H1095   1.083       .  S
C1092      H1096   1.083       .  S
C1097      C1098   1.406       .  A
C1097      C1102   1.398       .  A
C1097      H1107   1.083       .  S
C1098      C1099   1.408       .  A
C1098      C1103   1.488       .  S
C1099      C1100   1.403       .  A
C1099      H1104   1.083       .  S
C1100      C1101   1.404       .  A
C1100      H1105   1.083       .  S
C1101      C1102   1.402       .  A
C1102      H1106   1.083       .  S
C1103      C1108   1.408       .  A
C1103      C1112   1.406       .  A
C1108      C1109   1.400       .  A
C1108      H1113   1.083       .  S
C1109      C1110   1.402       .  A
C1109      H1114   1.083       .  S
C1110      C1111   1.403       .  A
C1111      C1112   1.401       .  A
C1111      H1115   1.083       .  S
C1112      H1116   1.082       .  S
C1117      C1118   1.410       .  A
C1117      C1122   1.402       .  A
C1117      H1127   1.082       .  S
C1118      C1119   1.409   1_554  A
C1118      C1123   1.501       .  S
C1119      C1120   1.400       .  A
C1119      H1124   1.079       .  S
C1120      C1121   1.402       .  A
C1120      H1125   1.083       .  S
C1121      C1122   1.404   1_556  A
C1122      H1126   1.083       .  S
C1123      C1128   1.410   1_554  A
C1123      C1132   1.410       .  A
C1128      C1129   1.402       .  A
C1128      H1133   1.082       .  S
C1129      C1130   1.404   1_556  A
C1129      H1134   1.083       .  S
C1130      C1131   1.402       .  A
C1131      C1132   1.400       .  A
C1131      H1135   1.083       .  S
C1132      H1136   1.081       .  S
