geometry optimzed in LAMMPS
_audit_creation_date              2020-12-01 
_audit_creation_method            'lammps2cif' 
_symmetry_space_group_name_H-M    'P1' 
_symmetry_Int_Tables_number       1 
_symmetry_cell_setting            triclinic 
loop_ 
_symmetry_equiv_pos_as_xyz 
  x,y,z 
_cell_length_a                    64.42255258 
_cell_length_b                    64.43668609125712 
_cell_length_c                    64.37108483757125 
_cell_angle_alpha                 89.9257533027822 
_cell_angle_beta                  89.70444282644374 
_cell_angle_gamma                 90.20467345027484 
loop_ 
_atom_site_label 
_atom_site_type_symbol 
_atom_site_fract_x 
_atom_site_fract_y 
_atom_site_fract_z 
_atom_site_charge 
C1          C  0.74572647  0.00620546  0.00417128     0.88300
C2          C  0.76909451  0.00931700  0.00766289    -0.52000
C3          C  0.78107231  0.99665827  0.99563209     0.11200
C4          C  0.76875238  0.98217202  0.98134002     0.22100
C5          C  0.74257202  0.00936919  0.98075181    -0.52700
C6          C  0.75471117  0.99672747  0.96885944     0.11300
C7          C  0.74178650  0.98300247  0.00799518    -0.52200
C8          C  0.75392594  0.97048198  0.99600425     0.11900
H9          H  0.77553807  0.02045149  0.01854478     0.16400
H10         H  0.77861517  0.97189519  0.97158515     0.02100
H11         H  0.73186556  0.02056914  0.97421170     0.16700
H12         H  0.73059911  0.97704666  0.01921691     0.16500
C13         C  0.74499368  0.73297742  0.73129549     0.88300
C14         C  0.74186923  0.75630237  0.72756412    -0.52000
C15         C  0.75415195  0.76845802  0.73977640     0.11200
C16         C  0.76830686  0.75631140  0.75450351     0.22100
C17         C  0.76831723  0.72931450  0.72803381    -0.52700
C18         C  0.78045409  0.74159686  0.74024666     0.11300
C19         C  0.74124673  0.72978656  0.75466191    -0.52200
C20         C  0.75352725  0.74206331  0.76675003     0.11900
H21         H  0.73105501  0.76259120  0.71632180     0.16400
H22         H  0.77828998  0.76628484  0.76441967     0.02100
H23         H  0.77462708  0.71813967  0.71708804     0.16700
H24         H  0.73003659  0.71883828  0.76102947     0.16500
C25         C  0.02080912  0.00793318  0.72359237     0.88300
C26         C  0.02368766  0.98450617  0.72029515    -0.52000
C27         C  0.01159932  0.97268685  0.73317604     0.11200
C28         C  0.99784217  0.98521540  0.74805209     0.22100
C29         C  0.99740786  0.01170109  0.72102074    -0.52700
C30         C  0.98545107  0.99974096  0.73391014     0.11300
C31         C  0.02507905  0.01152591  0.74678915    -0.52200
C32         C  0.01296998  0.99955786  0.75952094     0.11900
H33         H  0.03428655  0.97790965  0.70893200     0.16400
H34         H  0.98803051  0.97549753  0.75851262     0.02100
H35         H  0.99093228  0.02275937  0.71009643     0.16700
H36         H  0.03651788  0.02247797  0.75257329     0.16500
C37         C  0.24604376  0.23346887  0.73413906     0.88300
C38         C  0.26932835  0.22930704  0.73117211    -0.52000
C39         C  0.28154898  0.24133259  0.74355536     0.11200
C40         C  0.26954217  0.25628503  0.75764605     0.22100
C41         C  0.24192639  0.23035227  0.75746203    -0.52700
C42         C  0.25431680  0.24237862  0.76968669     0.11300
C43         C  0.24346052  0.25686075  0.73038808    -0.52200
C44         C  0.25583687  0.26872379  0.74278171     0.11900
H45         H  0.27554453  0.21799743  0.72031940     0.16400
H46         H  0.27959493  0.26604766  0.76770602     0.02100
H47         H  0.23037499  0.21968008  0.76369636     0.16700
H48         H  0.23283939  0.26340312  0.71910229     0.16500
Zn49       Zn  0.49116161  0.22620119  0.72946547     1.49700
Zn50       Zn  0.52640909  0.22597499  0.76443865     1.49400
Zn51       Zn  0.52631051  0.26118495  0.72909769     1.49100
Zn52       Zn  0.49149179  0.26114912  0.76518061     1.49500
O53         O  0.50881979  0.24366486  0.74707198    -1.82300
O54         O  0.49614376  0.19581979  0.73494270    -0.73000
O55         O  0.55671874  0.23160372  0.75889425    -0.72800
O56         O  0.52083300  0.25594496  0.69864463    -0.72300
O57         O  0.52085042  0.19566278  0.75899801    -0.73000
O58         O  0.49628029  0.23158842  0.69895664    -0.72600
O59         O  0.55668275  0.25607871  0.73443155    -0.73200
O60         O  0.49696636  0.29158090  0.75960681    -0.72600
O61         O  0.52117418  0.23091075  0.79498624    -0.73300
O62         O  0.52077692  0.29143910  0.73439328    -0.72700
O63         O  0.49692201  0.25540139  0.79571003    -0.73200
O64         O  0.46105349  0.25588575  0.75985239    -0.73100
O65         O  0.46096492  0.23180904  0.73505873    -0.72900
C66         C  0.50834590  0.18620012  0.74704189     0.78900
C67         C  0.56623677  0.24395154  0.74667912     0.79400
C68         C  0.50841951  0.24383998  0.68922089     0.78400
C69         C  0.50884977  0.30104725  0.74686450     0.78700
C70         C  0.50910744  0.24294780  0.80494284     0.79900
C71         C  0.45147622  0.24388647  0.74745437     0.78900
C72         C  0.52052745  0.50631425  0.73246579     0.88300
C73         C  0.52321242  0.48291979  0.72892610    -0.52000
C74         C  0.51075933  0.47107040  0.74139763     0.11200
C75         C  0.49684672  0.48354157  0.75618689     0.22100
C76         C  0.49724313  0.51036990  0.72947864    -0.52700
C77         C  0.48491293  0.49838115  0.74196498     0.11300
C78         C  0.52438278  0.50957654  0.75580084    -0.52200
C79         C  0.51189496  0.49757551  0.76816737     0.11900
H80         H  0.53394089  0.47635481  0.71766535     0.16400
H81         H  0.48672103  0.47378651  0.76630484     0.02100
H82         H  0.49110559  0.52159795  0.71853265     0.16700
H83         H  0.53583417  0.52032605  0.76193399     0.16500
C84         C  0.52096488  0.23207634  0.01150974     0.88300
C85         C  0.52454500  0.25548632  0.01442179    -0.52000
C86         C  0.51260855  0.26739684  0.00167258     0.11200
C87         C  0.49832280  0.25494812  0.98727232     0.22100
C88         C  0.49753294  0.22886114  0.01469524    -0.52700
C89         C  0.48575429  0.24089235  0.00194938     0.11300
C90         C  0.52481100  0.22806779  0.98825802    -0.52200
C91         C  0.51287397  0.24011283  0.97561582     0.11900
H92         H  0.53534784  0.26200328  0.02556535     0.16400
H93         H  0.48861294  0.26472564  0.97693926     0.02100
H94         H  0.49089616  0.21814440  0.02596744     0.16700
H95         H  0.53583837  0.21676538  0.98237406     0.16500
Zn96       Zn  0.73805366  0.76069065  0.97726062     1.49700
Zn97       Zn  0.77289154  0.72543822  0.97693954     1.49400
Zn98       Zn  0.77295276  0.76036682  0.01237019     1.49100
Zn99       Zn  0.73775520  0.72516324  0.01246747     1.49500
O100        O  0.75538409  0.74288222  0.99476003    -1.82300
O101        O  0.74318257  0.75533962  0.94677034    -0.73000
O102        O  0.80326344  0.73090038  0.98214124    -0.72800
O103        O  0.76739142  0.79072937  0.00765186    -0.72300
O104        O  0.76740046  0.73079416  0.94658680    -0.73000
O105        O  0.74340305  0.79105998  0.98290390    -0.72600
O106        O  0.80321931  0.75533830  0.00656932    -0.73200
O107        O  0.74345180  0.73006503  0.04296274    -0.72600
O108        O  0.76733987  0.69507479  0.98215842    -0.73300
O109        O  0.76790077  0.75455377  0.04270830    -0.72700
O110        O  0.74266415  0.69478916  0.00650349    -0.73200
O111        O  0.70743781  0.73098973  0.00747928    -0.73100
O112        O  0.70778371  0.75537020  0.98291829    -0.72900
C113        C  0.75520162  0.74300923  0.93711678     0.78900
C114        C  0.81277307  0.74319613  0.99429028     0.79400
C115        C  0.75532995  0.80044056  0.99550195     0.78400
C116        C  0.75580642  0.74223410  0.05239902     0.78700
C117        C  0.75490458  0.68538669  0.99415934     0.79900
C118        C  0.69808454  0.74330999  0.99526620     0.78900
C119        C  0.89683467  0.35590613  0.88304470     0.88300
C120        C  0.90905684  0.37076539  0.86896763    -0.52000
C121        C  0.89675089  0.38288557  0.85683025     0.11200
C122        C  0.87330965  0.37908909  0.85989371     0.22100
C123        C  0.88205448  0.36972184  0.89552682    -0.52700
C124        C  0.86971781  0.38185682  0.88342051     0.11300
C125        C  0.88288544  0.34347485  0.86838937    -0.52200
C126        C  0.87058731  0.35562052  0.85625332     0.11900
H127        H  0.92591625  0.37157159  0.86855410     0.16400
H128        H  0.86328216  0.38897555  0.85000002     0.02100
H129        H  0.88139913  0.36990531  0.91240646     0.16700
H130        H  0.88278287  0.32663022  0.86761912     0.16500
C131        C  0.99379696  0.48272613  0.75785738     0.88300
C132        C  0.01707475  0.47914700  0.76138439    -0.52000
C133        C  0.02942450  0.49120326  0.74897395     0.11200
C134        C  0.01749848  0.50560175  0.73428272     0.22100
C135        C  0.99058874  0.50611930  0.76101260    -0.52700
C136        C  0.00305684  0.51801701  0.74858729     0.11300
C137        C  0.99045731  0.47908139  0.73454245    -0.52200
C138        C  0.00290677  0.49114405  0.72226691     0.11900
H139        H  0.02319295  0.46819320  0.77262000     0.16400
H140        H  0.02761243  0.51539863  0.72419457     0.02100
H141        H  0.97946526  0.51263754  0.77191133     0.16700
H142        H  0.97920779  0.46815525  0.72833886     0.16500
C143        C  0.76985681  0.48009053  0.98080005     0.88300
C144        C  0.77298895  0.47618708  0.00414472    -0.52000
C145        C  0.76070964  0.48835285  0.01642046     0.11200
C146        C  0.74657528  0.50316081  0.00438763     0.22100
C147        C  0.74650637  0.47693452  0.97717488    -0.52700
C148        C  0.73440390  0.48908321  0.98959706     0.11300
C149        C  0.77360746  0.50347373  0.97778388    -0.52200
C150        C  0.76132305  0.51547062  0.99019707     0.11900
H151        H  0.78380285  0.46489746  0.01034754     0.16400
H152        H  0.73659801  0.51302375  0.01445642     0.02100
H153        H  0.74016292  0.46614736  0.96589506     0.16700
H154        H  0.78475640  0.50990951  0.96680209     0.16500
C155        C  0.24296628  0.00651904  0.50651190     0.88300
C156        C  0.24022394  0.00976115  0.48305101    -0.52000
C157        C  0.25284479  0.99746445  0.47131998     0.11200
C158        C  0.26696207  0.98313828  0.48395348     0.22100
C159        C  0.23945130  0.98316742  0.51006795    -0.52700
C160        C  0.25210053  0.97099176  0.49819201     0.11300
C161        C  0.26622635  0.01007704  0.51048065    -0.52200
C162        C  0.27872013  0.99774870  0.49859155     0.11900
H163        H  0.22933227  0.02068093  0.47636347     0.16400
H164        H  0.27720674  0.97314873  0.47428966     0.02100
H165        H  0.22807984  0.97687909  0.52091652     0.16700
H166        H  0.27222034  0.02124894  0.52157557     0.16500
C167        C  0.14921179  0.13664965  0.63155287     0.88300
C168        C  0.13514992  0.14914909  0.61708108    -0.52000
C169        C  0.12301465  0.13704562  0.60467124     0.11200
C170        C  0.12607972  0.11355423  0.60782350     0.22100
C171        C  0.13453227  0.12225346  0.64367235    -0.52700
C172        C  0.12241821  0.11016004  0.63125238     0.11300
C173        C  0.16169102  0.12232766  0.61722363    -0.52200
C174        C  0.14957846  0.11023538  0.60478291     0.11900
H175        H  0.13471000  0.16600070  0.61677851     0.16400
H176        H  0.11619619  0.10369595  0.59770999     0.02100
H177        H  0.13377200  0.12167680  0.66053535     0.16700
H178        H  0.17854556  0.12177926  0.61694666     0.16500
C179        C  0.01794828  0.73179741  0.00453365     0.88300
C180        C  0.02163402  0.72836569  0.98119756    -0.52000
C181        C  0.00967665  0.74077880  0.96898072     0.11200
C182        C  0.99523478  0.75534708  0.98106697     0.22100
C183        C  0.02165319  0.75511141  0.00802031    -0.52700
C184        C  0.00966490  0.76736460  0.99564967     0.11300
C185        C  0.99454166  0.72858305  0.00782184    -0.52200
C186        C  0.98273256  0.74099366  0.99548577     0.11900
H187        H  0.03263943  0.71723876  0.97494651     0.16400
H188        H  0.98550476  0.76541479  0.97103555     0.02100
H189        H  0.03264152  0.76131237  0.01917231     0.16700
H190        H  0.98794459  0.71763206  0.01889160     0.16500
C191        C  0.24385622  0.50945258  0.00982135     0.88300
C192        C  0.24058975  0.48603994  0.01304724    -0.52000
C193        C  0.25301007  0.47417503  0.00065657     0.11200
C194        C  0.26741482  0.48665353  0.98623763     0.22100
C195        C  0.26717116  0.51309569  0.01326445    -0.52700
C196        C  0.27943097  0.50107316  0.00085201     0.11300
C197        C  0.24047949  0.51310989  0.98648989    -0.52200
C198        C  0.25289353  0.50111155  0.97420163     0.11900
H199        H  0.22962603  0.47948357  0.02414573     0.16400
H200        H  0.27749660  0.47689640  0.97617148     0.02100
H201        H  0.27337532  0.52402322  0.02449058     0.16700
H202        H  0.22938125  0.52412711  0.98029321     0.16500
C203        C  0.24178560  0.72630277  0.23192288     0.88300
C204        C  0.26528147  0.72401043  0.22841249    -0.52000
C205        C  0.27680034  0.73732331  0.24016931     0.11200
C206        C  0.26393627  0.75159122  0.25422872     0.22100
C207        C  0.23857249  0.72347416  0.25542674    -0.52700
C208        C  0.25025339  0.73677821  0.26702673     0.11300
C209        C  0.23718075  0.74931133  0.22770475    -0.52200
C210        C  0.24885587  0.76248225  0.23946323     0.11900
H211        H  0.27213738  0.71290189  0.21774412     0.16400
H212        H  0.27341532  0.76239085  0.26377647     0.02100
H213        H  0.22818277  0.71199608  0.26223011     0.16700
H214        H  0.22581444  0.75465834  0.21652239     0.16500
C215        C  0.11356566  0.63252544  0.10548886     0.88300
C216        C  0.12792748  0.64504452  0.11971683    -0.52000
C217        C  0.14039362  0.63294850  0.13175802     0.11200
C218        C  0.13737732  0.60946036  0.12846831     0.22100
C219        C  0.12799829  0.61842490  0.09291072    -0.52700
C220        C  0.14047409  0.60635649  0.10492863     0.11300
C221        C  0.10151247  0.61793184  0.12000444    -0.52200
C222        C  0.11397757  0.60586879  0.13205011     0.11900
H223        H  0.12822458  0.66189710  0.12022176     0.16400
H224        H  0.14753351  0.59961227  0.13827044     0.02100
H225        H  0.12835456  0.61803904  0.07602781     0.16700
H226        H  0.08466252  0.61722481  0.12073287     0.16500
C227        C  0.51801524  0.72954415  0.50951375     0.88300
C228        C  0.49464512  0.72612475  0.51314860    -0.52000
C229        C  0.48252071  0.73838107  0.50092336     0.11200
C230        C  0.49469900  0.75281173  0.48630243     0.22100
C231        C  0.52134368  0.72608708  0.48610984    -0.52700
C232        C  0.50906203  0.73832435  0.47402762     0.11300
C233        C  0.52152508  0.75293197  0.51285670    -0.52200
C234        C  0.50922263  0.76504644  0.50062771     0.11900
H235        H  0.48831139  0.71508631  0.52427882     0.16400
H236        H  0.48471878  0.76273959  0.47637828     0.02100
H237        H  0.53229147  0.71498287  0.47971673     0.16700
H238        H  0.53259177  0.75927679  0.52383849     0.16500
Zn239      Zn  0.27250032  0.76100808  0.47699870     1.49700
Zn240      Zn  0.23697011  0.76029147  0.51227522     1.49400
Zn241      Zn  0.23787726  0.72491134  0.47729812     1.49100
Zn242      Zn  0.27284057  0.72593040  0.51241191     1.49500
O243        O  0.25503977  0.74307578  0.49472127    -1.82300
O244        O  0.26670042  0.79136507  0.48248170    -0.73000
O245        O  0.20664758  0.75476751  0.50626499    -0.72800
O246        O  0.24392858  0.72978165  0.44692689    -0.72300
O247        O  0.24237576  0.79078245  0.50717857    -0.73000
O248        O  0.26742575  0.75521546  0.44655554    -0.72600
O249        O  0.20730707  0.73026905  0.48191087    -0.73200
O250        O  0.26801689  0.69541939  0.50743559    -0.72600
O251        O  0.24215019  0.75491450  0.54276493    -0.73300
O252        O  0.24344593  0.69466009  0.48326556    -0.72700
O253        O  0.26751991  0.73154487  0.54272630    -0.73200
O254        O  0.30307796  0.73178098  0.50689578    -0.73100
O255        O  0.30302347  0.75620665  0.48241811    -0.72900
C256        C  0.25449090  0.80063506  0.49497056     0.78900
C257        C  0.19741501  0.74255577  0.49380096     0.79400
C258        C  0.25580889  0.74228412  0.43718500     0.78400
C259        C  0.25590170  0.68549024  0.49546256     0.78700
C260        C  0.25491468  0.74332532  0.55230116     0.79900
C261        C  0.31260511  0.74412014  0.49469342     0.78900
Zn262      Zn  0.23929181  0.51302749  0.72811819     1.49700
Zn263      Zn  0.27429424  0.51420884  0.76354384     1.49400
Zn264      Zn  0.23970642  0.47847188  0.76411861     1.49100
Zn265      Zn  0.27510817  0.47858800  0.72889979     1.49500
O266        O  0.25708538  0.49610095  0.74614607    -1.82300
O267        O  0.24431530  0.54364817  0.73288391    -0.73000
O268        O  0.26850262  0.50950648  0.79404085    -0.72800
O269        O  0.20936263  0.48331005  0.75876070    -0.72300
O270        O  0.26852332  0.54431542  0.75745446    -0.73000
O271        O  0.20892355  0.50728669  0.73383823    -0.72600
O272        O  0.24469705  0.48439925  0.79446940    -0.73200
O273        O  0.26983678  0.44828122  0.73456378    -0.72600
O274        O  0.30484565  0.50913675  0.75855349    -0.73300
O275        O  0.24528205  0.44814442  0.75902717    -0.72700
O276        O  0.30538532  0.48437074  0.73447634    -0.73200
O277        O  0.26989798  0.48328827  0.69837280    -0.73100
O278        O  0.24474693  0.50688082  0.69776061    -0.72900
C279        C  0.25631239  0.55352575  0.74504670     0.78900
C280        C  0.25643838  0.49720993  0.80381900     0.79400
C281        C  0.19959707  0.49512597  0.74639939     0.78400
C282        C  0.25758528  0.43867878  0.74681193     0.78700
C283        C  0.31467284  0.49685663  0.74660709     0.79900
C284        C  0.25732068  0.49478581  0.68850179     0.78900
Zn285      Zn  0.99079730  0.72792857  0.72311255     1.49700
Zn286      Zn  0.99016461  0.76283182  0.75866572     1.49400
Zn287      Zn  0.02517526  0.72755353  0.75892364     1.49100
Zn288      Zn  0.02625938  0.76283804  0.72392434     1.49500
O289        O  0.00807448  0.74532243  0.74116671    -1.82300
O290        O  0.96040779  0.73335875  0.72798898    -0.73000
O291        O  0.99507178  0.75736405  0.78921788    -0.72800
O292        O  0.01935719  0.69729387  0.75363461    -0.72300
O293        O  0.95984029  0.75736032  0.75282517    -0.73000
O294        O  0.99554466  0.69750809  0.72868631    -0.72600
O295        O  0.01931051  0.73283490  0.78916403    -0.73200
O296        O  0.05651549  0.75765170  0.73019170    -0.72600
O297        O  0.99567759  0.79326399  0.75323685    -0.73300
O298        O  0.05573866  0.73292551  0.75436693    -0.72700
O299        O  0.02072695  0.79309635  0.72927018    -0.73200
O300        O  0.02138389  0.75788351  0.69332216    -0.73100
O301        O  0.99665261  0.73367603  0.69282224    -0.72900
C302        C  0.95057899  0.74531474  0.74023488     0.78900
C303        C  0.00712058  0.74502334  0.79874964     0.79400
C304        C  0.00719325  0.68786708  0.74130920     0.78400
C305        C  0.06567840  0.74542961  0.74265483     0.78700
C306        C  0.00823026  0.80272212  0.74115457     0.79900
C307        C  0.00904381  0.74600870  0.68350649     0.78900
C308        C  0.27153695  0.75878895  0.75743288     0.88300
C309        C  0.27469960  0.76188459  0.73396713    -0.52000
C310        C  0.26177512  0.74992364  0.72225220     0.11200
C311        C  0.24696923  0.73609541  0.73490499     0.22100
C312        C  0.24838758  0.76306656  0.76136531    -0.52700
C313        C  0.23558849  0.75109615  0.74948727     0.11300
C314        C  0.27415516  0.73537288  0.76105733    -0.52200
C315        C  0.26122207  0.72356812  0.74917727     0.11900
H316        H  0.28610892  0.77242197  0.72726860     0.16400
H317        H  0.23648097  0.72638016  0.72525116     0.02100
H318        H  0.24268697  0.77442398  0.77243857     0.16700
H319        H  0.28521771  0.72877377  0.77186795     0.16500
Zn320      Zn  0.52140700  0.72395849  0.26363766     1.49700
Zn321      Zn  0.52234921  0.75872829  0.22796953     1.49400
Zn322      Zn  0.48640284  0.72431585  0.22848615     1.49100
Zn323      Zn  0.48711195  0.76011311  0.26342506     1.49500
O324        O  0.50427246  0.74180212  0.24592375    -1.82300
O325        O  0.55196154  0.72901322  0.25845823    -0.73000
O326        O  0.51671223  0.75340629  0.19764058    -0.72800
O327        O  0.49101335  0.69380670  0.23415494    -0.72300
O328        O  0.55256187  0.75287427  0.23341717    -0.73000
O329        O  0.51547968  0.69359185  0.25844426    -0.72600
O330        O  0.49168278  0.72951373  0.19794182    -0.73200
O331        O  0.45653316  0.75552893  0.25773145    -0.72600
O332        O  0.51789756  0.78923281  0.23299861    -0.73300
O333        O  0.45623952  0.73048745  0.23390873    -0.72700
O334        O  0.49367049  0.79042711  0.25774790    -0.73200
O335        O  0.49206871  0.75454573  0.29404076    -0.73100
O336        O  0.51578780  0.72949227  0.29398205    -0.72900
C337        C  0.56181340  0.74088711  0.24602642     0.78900
C338        C  0.50408541  0.74152576  0.18822359     0.79400
C339        C  0.50302116  0.68413562  0.24642286     0.78400
C340        C  0.44684117  0.74323063  0.24569792     0.78700
C341        C  0.50616722  0.79938585  0.24521260     0.79900
C342        C  0.50387246  0.74195895  0.30358826     0.78900
C343        C  0.36916696  0.88273161  0.88438393     0.88300
C344        C  0.38302046  0.86789512  0.89661577    -0.52000
C345        C  0.39502154  0.85556215  0.88428852     0.11200
C346        C  0.39209983  0.85921310  0.86081051     0.22100
C347        C  0.38395464  0.89494407  0.87021077    -0.52700
C348        C  0.39594198  0.88265570  0.85783443     0.11300
C349        C  0.35657086  0.86885538  0.86979241    -0.52200
C350        C  0.36858535  0.85654567  0.85744109     0.11900
H351        H  0.38331665  0.86718774  0.91348288     0.16400
H352        H  0.40188221  0.84917676  0.85074412     0.02100
H353        H  0.38477902  0.91179982  0.86987853     0.16700
H354        H  0.33971330  0.86879713  0.86923070     0.16500
C355        C  0.49467562  0.98027354  0.75785018     0.88300
C356        C  0.49126315  0.97717617  0.73445317    -0.52000
C357        C  0.50294218  0.99022046  0.72241596     0.11200
C358        C  0.51684954  0.00509170  0.73474494     0.22100
C359        C  0.51818524  0.97784108  0.76097606    -0.52700
C360        C  0.52971731  0.99091176  0.74880098     0.11300
C361        C  0.49029679  0.00336763  0.76180788    -0.52200
C362        C  0.50199935  0.01629292  0.74964757     0.11900
H363        H  0.48071099  0.96569459  0.72802162     0.16400
H364        H  0.52634021  0.01569384  0.72486594     0.02100
H365        H  0.52503571  0.96681738  0.77169162     0.16700
H366        H  0.47914560  0.00894834  0.77319334     0.16500
C367        C  0.49298617  0.75748417  0.98235733     0.88300
C368        C  0.51639537  0.76070944  0.97897622    -0.52000
C369        C  0.52825653  0.74842913  0.99141156     0.11200
C370        C  0.51580361  0.73416651  0.00595973     0.22100
C371        C  0.48931692  0.73416657  0.97909839    -0.52700
C372        C  0.50133418  0.72204146  0.99150862     0.11300
C373        C  0.48937143  0.76112875  0.00569700    -0.52200
C374        C  0.50141010  0.74882700  0.01798646     0.11900
H375        H  0.52294949  0.77160202  0.96781979     0.16400
H376        H  0.52557200  0.72417484  0.01602727     0.02100
H377        H  0.47836810  0.72785251  0.96797201     0.16700
H378        H  0.47836909  0.77229771  0.01188742     0.16500
C379        C  0.74012654  0.50596974  0.50800040     0.88300
C380        C  0.73716618  0.50947942  0.48459204    -0.52000
C381        C  0.74967814  0.49730902  0.47258990     0.11200
C382        C  0.76391799  0.48285488  0.48496515     0.22100
C383        C  0.73664003  0.48260012  0.51132340    -0.52700
C384        C  0.74915905  0.47056171  0.49919784     0.11300
C385        C  0.76340132  0.50949072  0.51181546    -0.52200
C386        C  0.77579500  0.49731455  0.49968232     0.11900
H387        H  0.72616872  0.52045011  0.47813324     0.16400
H388        H  0.77408139  0.47296355  0.47511771     0.02100
H389        H  0.72535833  0.47619393  0.52219490     0.16700
H390        H  0.76948071  0.52051292  0.52301150     0.16500
Zn391      Zn  0.77117750  0.50978708  0.22657783     1.49700
Zn392      Zn  0.73582970  0.50988230  0.26177757     1.49400
Zn393      Zn  0.73618124  0.47447864  0.22682989     1.49100
Zn394      Zn  0.77121752  0.47485697  0.26229632     1.49500
O395        O  0.75362173  0.49221185  0.24441702    -1.82300
O396        O  0.76615385  0.54013582  0.23205282    -0.73000
O397        O  0.70547519  0.50445189  0.25617645    -0.72800
O398        O  0.74173945  0.47965832  0.19635177    -0.72300
O399        O  0.74169081  0.54026917  0.25660327    -0.73000
O400        O  0.76600239  0.50432534  0.19618160    -0.72600
O401        O  0.70570838  0.47952209  0.23226292    -0.73200
O402        O  0.76613694  0.44431254  0.25677116    -0.72600
O403        O  0.74063019  0.50443426  0.29224266    -0.73300
O404        O  0.74181079  0.44422991  0.23231514    -0.72700
O405        O  0.76521488  0.48024479  0.29278364    -0.73200
O406        O  0.80172766  0.48071206  0.25695134    -0.73100
O407        O  0.80143914  0.50451795  0.23185213    -0.72900
C408        C  0.75413321  0.54974649  0.24443099     0.78900
C409        C  0.69603269  0.49187656  0.24425486     0.79400
C410        C  0.75397658  0.49188524  0.18669898     0.78400
C411        C  0.75402975  0.43471758  0.24448115     0.78700
C412        C  0.75268768  0.49237072  0.30208874     0.79900
C413        C  0.81113597  0.49276514  0.24432566     0.78900
C414        C  0.73896877  0.22913880  0.23251933     0.88300
C415        C  0.73564288  0.22570596  0.25591592    -0.52000
C416        C  0.74810936  0.23788979  0.26789546     0.11200
C417        C  0.76264777  0.25227751  0.25556443     0.22100
C418        C  0.73575073  0.25251628  0.22910766    -0.52700
C419        C  0.74822887  0.26455830  0.24123962     0.11300
C420        C  0.76228181  0.22555620  0.22882285    -0.52200
C421        C  0.77460834  0.23775700  0.24097081     0.11900
H422        H  0.72452324  0.21472578  0.26237687     0.16400
H423        H  0.77276304  0.26216987  0.26543131     0.02100
H424        H  0.72470770  0.25891939  0.21814841     0.16700
H425        H  0.76843187  0.21448047  0.21769013     0.16500
Zn426      Zn  0.77472260  0.97817047  0.75863675     1.49700
Zn427      Zn  0.77564057  0.01409078  0.72423119     1.49400
Zn428      Zn  0.74008544  0.97903033  0.72296347     1.49100
Zn429      Zn  0.73946767  0.01349187  0.75855680     1.49500
O430        O  0.75749788  0.99617487  0.74112064    -1.82300
O431        O  0.80541806  0.98330612  0.75363820    -0.73000
O432        O  0.77087632  0.00941104  0.69366953    -0.72800
O433        O  0.74511568  0.94855919  0.72785018    -0.72300
O434        O  0.80584543  0.00832231  0.72977871    -0.73000
O435        O  0.76898225  0.94788800  0.75273279    -0.72600
O436        O  0.74643219  0.98489776  0.69291835    -0.73200
O437        O  0.70914565  0.00832645  0.75256768    -0.72600
O438        O  0.77067025  0.04434697  0.73040630    -0.73300
O439        O  0.70953376  0.98432342  0.72775189    -0.72700
O440        O  0.74533956  0.04393584  0.75405562    -0.73200
O441        O  0.74418145  0.00754104  0.78888260    -0.73100
O442        O  0.76879184  0.98334421  0.78902761    -0.72900
C443        C  0.81520563  0.99577135  0.74173211     0.78900
C444        C  0.75891512  0.99724127  0.68376392     0.79400
C445        C  0.75694623  0.93867543  0.74010336     0.78400
C446        C  0.69977329  0.99631781  0.74003385     0.78700
C447        C  0.75819903  0.05367974  0.74255703     0.79900
C448        C  0.75631701  0.99537476  0.79850012     0.78900
C449        C  0.77167249  0.25936609  0.75683443     0.88300
C450        C  0.77553096  0.23622600  0.76113277    -0.52000
C451        C  0.76313509  0.22343508  0.74969006     0.11200
C452        C  0.74817698  0.23477722  0.73517890     0.22100
C453        C  0.77453333  0.26192124  0.73327163    -0.52700
C454        C  0.76216641  0.24895915  0.72202811     0.11300
C455        C  0.74836968  0.26254727  0.76081117    -0.52200
C456        C  0.73615128  0.24958136  0.74940337     0.11900
H457        H  0.78697358  0.23052698  0.77206426     0.16400
H458        H  0.73812671  0.22426767  0.72589493     0.02100
H459        H  0.78529942  0.27286903  0.72617515     0.16700
H460        H  0.74214304  0.27393289  0.77157892     0.16500
Zn461      Zn  0.73782819  0.22418299  0.51216042     1.49700
Zn462      Zn  0.77335019  0.22615838  0.47713615     1.49400
Zn463      Zn  0.73723147  0.26034224  0.47792162     1.49100
Zn464      Zn  0.77228097  0.26053066  0.51288125     1.49500
O465        O  0.75515596  0.24278636  0.49505114    -1.82300
O466        O  0.74375790  0.19404349  0.50577996    -0.73000
O467        O  0.76794744  0.23207317  0.44693296    -0.72800
O468        O  0.70699228  0.25438522  0.48354341    -0.72300
O469        O  0.76836240  0.19557631  0.48142358    -0.73000
O470        O  0.70729483  0.22906861  0.50708987    -0.72600
O471        O  0.74237370  0.25523659  0.44747898    -0.73200
O472        O  0.76654415  0.29094690  0.50791970    -0.72600
O473        O  0.80359692  0.23166853  0.48310799    -0.73300
O474        O  0.74209829  0.29075990  0.48361441    -0.72700
O475        O  0.80286038  0.25544301  0.50815011    -0.73200
O476        O  0.76636887  0.25457622  0.54298468    -0.73100
O477        O  0.74303704  0.22897998  0.54268247    -0.72900
C478        C  0.75622356  0.18526582  0.49319366     0.78900
C479        C  0.75501485  0.24367576  0.43767281     0.79400
C480        C  0.69758752  0.24159577  0.49537675     0.78400
C481        C  0.75410610  0.30040939  0.49592733     0.78700
C482        C  0.81278242  0.24352761  0.49591917     0.79900
C483        C  0.75465157  0.24166711  0.55236679     0.78900
C484        C  0.89375239  0.88131715  0.35103630     0.88300
C485        C  0.87916291  0.86630750  0.33980473    -0.52000
C486        C  0.86734196  0.85452958  0.35294722     0.11200
C487        C  0.87118852  0.85881007  0.37615578     0.22100
C488        C  0.87967494  0.89415072  0.36530174    -0.52700
C489        C  0.86784538  0.88237082  0.37845291     0.11300
C490        C  0.90656477  0.86770342  0.36563915    -0.52200
C491        C  0.89477035  0.85590687  0.37879045     0.11900
H492        H  0.87821084  0.86513382  0.32299168     0.16400
H493        H  0.86155459  0.84919534  0.38685596     0.02100
H494        H  0.87908078  0.91100189  0.36500915     0.16700
H495        H  0.92343883  0.86734079  0.36552794     0.16500
C496        C  0.76946663  0.97958834  0.47846738     0.88300
C497        C  0.77325331  0.00288577  0.47478900    -0.52000
C498        C  0.76122333  0.01524880  0.48711556     0.11200
C499        C  0.74667021  0.00333776  0.50185425     0.22100
C500        C  0.77299126  0.97628254  0.50181824    -0.52700
C501        C  0.76097960  0.98878281  0.51397203     0.11300
C502        C  0.74603524  0.97642057  0.47533637    -0.52200
C503        C  0.73417794  0.98891950  0.48766203     0.11900
H504        H  0.78431692  0.00899658  0.46353422     0.16400
H505        H  0.73692260  0.01347638  0.51187151     0.02100
H506        H  0.78389966  0.96515094  0.50812211     0.16700
H507        H  0.73946250  0.96531781  0.46449302     0.16500
C508        C  0.99182648  0.75701491  0.47781579     0.88300
C509        C  0.01520887  0.76005325  0.47386272    -0.52000
C510        C  0.02730370  0.74796425  0.48631281     0.11200
C511        C  0.01505365  0.73406824  0.50140894     0.22100
C512        C  0.98797137  0.73362490  0.47513684    -0.52700
C513        C  0.00019918  0.72167651  0.48755407     0.11300
C514        C  0.98876693  0.76114813  0.50113260    -0.52200
C515        C  0.00099876  0.74907410  0.51341214     0.11900
H516        H  0.02156458  0.77075908  0.46242902     0.16400
H517        H  0.02497365  0.72426144  0.51151135     0.02100
H518        H  0.97666589  0.72714440  0.46447275     0.16700
H519        H  0.97800425  0.77253969  0.50732718     0.16500
C520        C  0.76718084  0.75501766  0.25848610     0.88300
C521        C  0.74373153  0.75799062  0.26165810    -0.52000
C522        C  0.73200009  0.74593330  0.24883042     0.11200
C523        C  0.74464467  0.73211294  0.23411493     0.22100
C524        C  0.77083233  0.73164661  0.26127482    -0.52700
C525        C  0.75897645  0.71973077  0.24844368     0.11300
C526        C  0.77107049  0.75924399  0.23527712    -0.52200
C527        C  0.75919174  0.74715569  0.22258409     0.11900
H528        H  0.73705518  0.76855302  0.27298044     0.16400
H529        H  0.73500772  0.72229979  0.22370872     0.02100
H530        H  0.78171347  0.72515053  0.27233035     0.16700
H531        H  0.78216065  0.77061265  0.22945971     0.16500
C532        C  0.26710224  0.47997159  0.48287475     0.88300
C533        C  0.27077221  0.50332488  0.47966927    -0.52000
C534        C  0.25808350  0.51540486  0.49156093     0.11200
C535        C  0.24296788  0.50318407  0.50546697     0.22100
C536        C  0.26956529  0.47642456  0.50634275    -0.52700
C537        C  0.25687193  0.48864622  0.51810273     0.11300
C538        C  0.24387346  0.47657221  0.47859777    -0.52200
C539        C  0.23129862  0.48880136  0.49051477     0.11900
H540        H  0.28236122  0.50969140  0.46910887     0.16400
H541        H  0.23268004  0.51312298  0.51513522     0.02100
H542        H  0.28039591  0.46542126  0.51301630     0.16700
H543        H  0.23795818  0.46554680  0.46731482     0.16500
Zn544      Zn  0.52474768  0.51223197  0.97874224     1.49700
Zn545      Zn  0.48969916  0.51273323  0.01440231     1.49400
Zn546      Zn  0.48916751  0.47738195  0.97911077     1.49100
Zn547      Zn  0.52440004  0.47747807  0.01444862     1.49500
O548        O  0.50697226  0.49493152  0.99665537    -1.82300
O549        O  0.51951334  0.54263181  0.98373381    -0.73000
O550        O  0.45931544  0.50747622  0.00926474    -0.72800
O551        O  0.49449228  0.48270284  0.94845762    -0.72300
O552        O  0.49515251  0.54297409  0.00840491    -0.73000
O553        O  0.51933276  0.50678171  0.94837720    -0.72600
O554        O  0.45879167  0.48299619  0.98488006    -0.73200
O555        O  0.51878130  0.44718176  0.00915471    -0.72600
O556        O  0.49489042  0.50750994  0.04494331    -0.73300
O557        O  0.49449244  0.44693203  0.98465700    -0.72700
O558        O  0.51894570  0.48281976  0.04494827    -0.73200
O559        O  0.55483318  0.48249420  0.00872177    -0.73100
O560        O  0.55505645  0.50654601  0.98385585    -0.72900
C561        C  0.50727123  0.55233083  0.99582699     0.78900
C562        C  0.44950477  0.49533949  0.99720372     0.79400
C563        C  0.50694664  0.49475658  0.93882656     0.78400
C564        C  0.50665558  0.43750805  0.99697910     0.78700
C565        C  0.50680727  0.49509292  0.05453467     0.79900
C566        C  0.56448853  0.49433977  0.99611588     0.78900
C567        C  0.49048342  0.47830722  0.26048533     0.88300
C568        C  0.51391128  0.47521336  0.26359460    -0.52000
C569        C  0.52581183  0.48761037  0.25107780     0.11200
C570        C  0.51334944  0.50187590  0.23673504     0.22100
C571        C  0.48684345  0.50161849  0.26386085    -0.52700
C572        C  0.49887183  0.51389142  0.25136127     0.11300
C573        C  0.48688935  0.47475050  0.23714531    -0.52200
C574        C  0.49895422  0.48717156  0.22477791     0.11900
H575        H  0.52044730  0.46424907  0.27456685     0.16400
H576        H  0.52313107  0.51195531  0.22659276     0.02100
H577        H  0.47583397  0.50781672  0.27505716     0.16700
H578        H  0.47593085  0.46350735  0.23101556     0.16500
C579        C  0.36449589  0.35187640  0.35921109     0.88300
C580        C  0.37893024  0.36594471  0.34644832    -0.52000
C581        C  0.39102789  0.37863381  0.35828078     0.11200
C582        C  0.38762081  0.37605851  0.38188311     0.22100
C583        C  0.37877024  0.34006114  0.37402275    -0.52700
C584        C  0.39090633  0.35267968  0.38590752     0.11300
C585        C  0.35200570  0.36661788  0.37308397    -0.52200
C586        C  0.36408962  0.37930188  0.38495576     0.11900
H587        H  0.37946166  0.36595803  0.32956774     0.16400
H588        H  0.39748127  0.38638492  0.39153914     0.02100
H589        H  0.37929151  0.32322617  0.37498132     0.16700
H590        H  0.33514349  0.36703864  0.37344509     0.16500
C591        C  0.49225490  0.25673330  0.48357664     0.88300
C592        C  0.48822110  0.23350197  0.47974107    -0.52000
C593        C  0.50011685  0.22085333  0.49183200     0.11200
C594        C  0.51478751  0.23244039  0.50652986     0.22100
C595        C  0.48880478  0.25980525  0.50701682    -0.52700
C596        C  0.50066820  0.24702863  0.51895706     0.11300
C597        C  0.51573528  0.25964555  0.48021695    -0.52200
C598        C  0.52744657  0.24684894  0.49230667     0.11900
H599        H  0.47715295  0.22764108  0.46848758     0.16400
H600        H  0.52443480  0.22207901  0.51634001     0.02100
H601        H  0.47810426  0.27107246  0.51353785     0.16700
H602        H  0.52243768  0.27073535  0.46935494     0.16500
Zn603      Zn  0.48859587  0.97526750  0.47669980     1.49700
Zn604      Zn  0.48916681  0.01100792  0.51162551     1.49400
Zn605      Zn  0.52380295  0.97548060  0.51190770     1.49100
Zn606      Zn  0.52424260  0.01026211  0.47606838     1.49500
O607        O  0.50643934  0.99299373  0.49405434    -1.82300
O608        O  0.45824421  0.98108072  0.48228348    -0.73000
O609        O  0.49443059  0.00594357  0.54218907    -0.72800
O610        O  0.51784863  0.94507591  0.50710775    -0.72300
O611        O  0.45873387  0.00572619  0.50649896    -0.73000
O612        O  0.49353655  0.94480556  0.48265223    -0.72600
O613        O  0.51850236  0.98125795  0.54233403    -0.73200
O614        O  0.55458347  0.00453789  0.48133947    -0.72600
O615        O  0.49475554  0.04130177  0.50555474    -0.73300
O616        O  0.55428106  0.98038425  0.50611930    -0.72700
O617        O  0.51913736  0.04084850  0.48092753    -0.73200
O618        O  0.51870961  0.00454110  0.44573141    -0.73100
O619        O  0.49401256  0.98028742  0.44604909    -0.72900
C620        C  0.44893491  0.99350909  0.49449826     0.78900
C621        C  0.50641505  0.99363757  0.55184489     0.79400
C622        C  0.50554577  0.93537661  0.49511906     0.78400
C623        C  0.56398640  0.99231268  0.49362004     0.78700
C624        C  0.50694904  0.05064043  0.49302256     0.79900
C625        C  0.50635763  0.99236400  0.43630763     0.78900
C626        C  0.51822125  0.00527922  0.23016093     0.88300
C627        C  0.49480506  0.00736403  0.22638597    -0.52000
C628        C  0.48311220  0.99454297  0.23863656     0.11200
C629        C  0.49574608  0.98091710  0.25345011     0.22100
C630        C  0.52104750  0.00911127  0.25354715    -0.52700
C631        C  0.50921784  0.99626805  0.26568313     0.11300
C632        C  0.52293843  0.98212613  0.22702082    -0.52200
C633        C  0.51109239  0.96943567  0.23928623     0.11900
H634        H  0.48812103  0.01794065  0.21512610     0.16400
H635        H  0.48612159  0.97050036  0.26339409     0.02100
H636        H  0.53142515  0.02078819  0.25988340     0.16700
H637        H  0.53447292  0.97633376  0.21612761     0.16500
C638        C  0.01719704  0.50625323  0.23143828     0.88300
C639        C  0.02004200  0.50941883  0.25488848    -0.52000
C640        C  0.00698592  0.49748903  0.26664958     0.11200
C641        C  0.99240776  0.48353850  0.25403853     0.22100
C642        C  0.01991154  0.48283650  0.22793200    -0.52700
C643        C  0.00686774  0.47100520  0.23983064     0.11300
C644        C  0.99408206  0.51046720  0.22744659    -0.52200
C645        C  0.98116986  0.49848897  0.23936761     0.11900
H646        H  0.03124702  0.52011615  0.26155291     0.16400
H647        H  0.98181872  0.47383163  0.26372211     0.02100
H648        H  0.03111067  0.47625158  0.21714842     0.16700
H649        H  0.98848517  0.52181167  0.21633078     0.16500
Zn650      Zn  0.98582732  0.51128439  0.47700384     1.49700
Zn651      Zn  0.02094481  0.51171825  0.51211068     1.49400
Zn652      Zn  0.98600072  0.47583481  0.51193127     1.49100
Zn653      Zn  0.02132338  0.47643757  0.47679282     1.49500
O654        O  0.00356236  0.49382678  0.49448179    -1.82300
O655        O  0.99101230  0.54168454  0.48225925    -0.73000
O656        O  0.01513928  0.50623738  0.54251798    -0.72800
O657        O  0.95556491  0.48098012  0.50670978    -0.72300
O658        O  0.01546308  0.54217595  0.50655330    -0.73000
O659        O  0.95544970  0.50576326  0.48258821    -0.72600
O660        O  0.99111922  0.48129448  0.54228465    -0.73200
O661        O  0.01636700  0.44584945  0.48223978    -0.72600
O662        O  0.05150704  0.50643932  0.50691889    -0.73300
O663        O  0.99186065  0.44547027  0.50673340    -0.72700
O664        O  0.05158894  0.48215416  0.48234050    -0.73200
O665        O  0.01615420  0.48213701  0.44636281    -0.73100
O666        O  0.99141524  0.50618668  0.44662947    -0.72900
C667        C  0.00315187  0.55149467  0.49430304     0.78900
C668        C  0.00299538  0.49373410  0.55195241     0.79400
C669        C  0.94595027  0.49337900  0.49478471     0.78400
C670        C  0.00432809  0.43608586  0.49460472     0.78700
C671        C  0.06110829  0.49428614  0.49464409     0.79900
C672        C  0.00388073  0.49434179  0.43694279     0.78900
C673        C  0.01831208  0.23012009  0.50809446     0.88300
C674        C  0.02238785  0.25343054  0.51128815    -0.52000
C675        C  0.01014785  0.26577101  0.49923242     0.11200
C676        C  0.99512324  0.25379039  0.48518678     0.22100
C677        C  0.99496454  0.22720253  0.51214096    -0.52700
C678        C  0.98289243  0.23965921  0.50008124     0.11300
C679        C  0.02118380  0.22648799  0.48468165    -0.52200
C680        C  0.00898935  0.23893614  0.47275399     0.11900
H681        H  0.03374381  0.25956772  0.52209836     0.16400
H682        H  0.98518870  0.26388067  0.47538381     0.02100
H683        H  0.98859327  0.21629678  0.52339415     0.16700
H684        H  0.03177983  0.21511891  0.47816707     0.16500
C685        C  0.27125997  0.98439990  0.98082915     0.88300
C686        C  0.24818377  0.98075953  0.97618175    -0.52000
C687        C  0.23532714  0.99244135  0.98827590     0.11200
C688        C  0.24653977  0.00653116  0.00378900     0.22100
C689        C  0.27460089  0.00787753  0.97829219    -0.52700
C690        C  0.26155084  0.01937341  0.99038650     0.11300
C691        C  0.27356371  0.98019601  0.00418314    -0.52200
C692        C  0.26055554  0.99187144  0.01612826     0.11900
H693        H  0.24256465  0.97007135  0.96443199     0.16400
H694        H  0.23595830  0.01601107  0.01360791     0.02100
H695        H  0.28608611  0.01473339  0.96792245     0.16700
H696        H  0.28447672  0.96914893  0.01064863     0.16500
Zn697      Zn  0.02577480  0.01260127  0.96983823     1.49700
Zn698      Zn  0.99095512  0.01221104  0.00536796     1.49400
Zn699      Zn  0.99061504  0.97728460  0.96968016     1.49100
Zn700      Zn  0.02577559  0.97704079  0.00478436     1.49500
O701        O  0.00825553  0.99475459  0.98739311    -1.82300
O702        O  0.02076229  0.04291585  0.97566003    -0.73000
O703        O  0.96065431  0.00681327  0.00024081    -0.72800
O704        O  0.99599276  0.98300412  0.93919668    -0.72300
O705        O  0.99645347  0.04263461  0.00034879    -0.73000
O706        O  0.02029445  0.00765008  0.93946800    -0.72600
O707        O  0.96028104  0.98261073  0.97556580    -0.73200
O708        O  0.02020150  0.94678962  0.99930329    -0.72600
O709        O  0.99625049  0.00646175  0.03565439    -0.73300
O710        O  0.99586560  0.94679109  0.97487763    -0.72700
O711        O  0.02056967  0.98203322  0.03530982    -0.73200
O712        O  0.05606376  0.98236477  0.99904850    -0.73100
O713        O  0.05603138  0.00699728  0.97475304    -0.72900
C714        C  0.00868309  0.05232198  0.98814086     0.78900
C715        C  0.95093719  0.99468562  0.98810157     0.79400
C716        C  0.00819264  0.99546042  0.92976910     0.78400
C717        C  0.00799196  0.93724143  0.98712363     0.78700
C718        C  0.00837146  0.99411613  0.04504320     0.79900
C719        C  0.06556759  0.99463392  0.98675135     0.78900
C720        C  0.99218010  0.97981867  0.25034881     0.88300
C721        C  0.98868887  0.00308825  0.25412030    -0.52000
C722        C  0.00131122  0.01545718  0.24231295     0.11200
C723        C  0.01611882  0.00357745  0.22792506     0.22100
C724        C  0.98934425  0.97679542  0.22687138    -0.52700
C725        C  0.00195097  0.98930763  0.21520715     0.11300
C726        C  0.01542094  0.97636049  0.25422580    -0.52200
C727        C  0.02788069  0.98887719  0.24241121     0.11900
H728        H  0.97739456  0.00918365  0.26508627     0.16400
H729        H  0.02636230  0.01373452  0.21833238     0.02100
H730        H  0.97845677  0.96583215  0.22013242     0.16700
H731        H  0.02143585  0.96513159  0.26523932     0.16500
C732        C  0.99563652  0.25785359  0.98186322     0.88300
C733        C  0.99102720  0.26048506  0.00514130    -0.52000
C734        C  0.00293816  0.24808520  0.01741286     0.11200
C735        C  0.01822878  0.23431482  0.00544270     0.22100
C736        C  0.01903882  0.26188271  0.97950836    -0.52700
C737        C  0.03078804  0.24946907  0.99191986     0.11300
C738        C  0.99279157  0.23457909  0.97757543    -0.52200
C739        C  0.00469834  0.22233117  0.98999961     0.11900
H740        H  0.97952374  0.27113987  0.01131580     0.16400
H741        H  0.02790419  0.22424190  0.01552244     0.02100
H742        H  0.02567403  0.27334309  0.96898561     0.16700
H743        H  0.98241152  0.22839029  0.96584606     0.16500
Zn744      Zn  0.27562390  0.26406866  0.01496323     1.49700
Zn745      Zn  0.27600198  0.22911957  0.97963496     1.49400
Zn746      Zn  0.24030580  0.22881379  0.01452248     1.49100
Zn747      Zn  0.24091712  0.26423794  0.97953258     1.49500
O748        O  0.25821317  0.24655875  0.99717257    -1.82300
O749        O  0.30607903  0.25865763  0.00991482    -0.73000
O750        O  0.27032831  0.19878469  0.98471032    -0.72800
O751        O  0.24535206  0.23391280  0.04498198    -0.72300
O752        O  0.30631455  0.23430659  0.98541138    -0.73000
O753        O  0.26979375  0.25842796  0.04524585    -0.72600
O754        O  0.24551170  0.19852386  0.00889825    -0.73200
O755        O  0.21051993  0.25869468  0.98457294    -0.72600
O756        O  0.27091768  0.23450207  0.94924332    -0.73300
O757        O  0.21002676  0.23414377  0.00892605    -0.72700
O758        O  0.24649871  0.25886199  0.94920267    -0.73200
O759        O  0.24614736  0.29460931  0.98516787    -0.73100
O760        O  0.27026382  0.29447451  0.00981371    -0.72900
C761        C  0.31574424  0.24639301  0.99782553     0.78900
C762        C  0.25783492  0.18912206  0.99666085     0.79400
C763        C  0.25747146  0.24610824  0.05466333     0.78400
C764        C  0.20073287  0.24639045  0.99660815     0.78700
C765        C  0.25869381  0.24661617  0.93967794     0.79900
C766        C  0.25814671  0.30409148  0.99762312     0.78900
Zn767      Zn  0.23842941  0.00798777  0.22636306     1.49700
Zn768      Zn  0.27246034  0.97169574  0.22603187     1.49400
Zn769      Zn  0.27394473  0.00692442  0.26098348     1.49100
Zn770      Zn  0.23756068  0.97282199  0.26166161     1.49500
O771        O  0.25558344  0.98984798  0.24375292    -1.82300
O772        O  0.24419813  0.00315475  0.19594574    -0.73000
O773        O  0.30305635  0.97603440  0.23107384    -0.72800
O774        O  0.26926372  0.03740558  0.25591159    -0.72300
O775        O  0.26737565  0.97760249  0.19574179    -0.73000
O776        O  0.24407490  0.03822365  0.23239303    -0.72600
O777        O  0.30408161  0.00083302  0.25509253    -0.73200
O778        O  0.24290501  0.97864815  0.29197276    -0.72600
O779        O  0.26580213  0.94152028  0.23127138    -0.73300
O780        O  0.26856854  0.00188539  0.29140467    -0.72700
O781        O  0.24207328  0.94226563  0.25652531    -0.73200
O782        O  0.20734221  0.97857692  0.25608200    -0.73100
O783        O  0.20790466  0.00270462  0.23130350    -0.72900
C784        C  0.25592598  0.99054772  0.18629986     0.78900
C785        C  0.31311451  0.98820920  0.24289379     0.79400
C786        C  0.25680747  0.04736055  0.24436730     0.78400
C787        C  0.25569931  0.99048618  0.30123322     0.78700
C788        C  0.25353654  0.93235098  0.24384843     0.79900
C789        C  0.19807408  0.99066950  0.24358702     0.78900
Zn790      Zn  0.01976466  0.22543994  0.26261420     1.49700
Zn791      Zn  0.02043877  0.26099947  0.22788768     1.49400
Zn792      Zn  0.98513389  0.22578724  0.22715376     1.49100
Zn793      Zn  0.98451859  0.26068057  0.26273951     1.49500
O794        O  0.00242860  0.24326316  0.24512358    -1.82300
O795        O  0.05024687  0.23129541  0.25810277    -0.73000
O796        O  0.01575914  0.25575245  0.19736373    -0.72800
O797        O  0.99053589  0.19533940  0.23208265    -0.72300
O798        O  0.05073666  0.25607058  0.23398766    -0.73000
O799        O  0.01471269  0.19511103  0.25665648    -0.72600
O800        O  0.99089269  0.23167568  0.19691963    -0.73200
O801        O  0.95411709  0.25508675  0.25698526    -0.72600
O802        O  0.01472879  0.29126186  0.23318410    -0.73300
O803        O  0.95468303  0.23090807  0.23231060    -0.72700
O804        O  0.98995004  0.29122753  0.25742676    -0.73200
O805        O  0.98966347  0.25499327  0.29324303    -0.73100
O806        O  0.01373758  0.23027502  0.29291125    -0.72900
C807        C  0.06004371  0.24386934  0.24634909     0.78900
C808        C  0.00344661  0.24382322  0.18759065     0.79400
C809        C  0.00267606  0.18567323  0.24421075     0.78400
C810        C  0.94483962  0.24290766  0.24451758     0.78700
C811        C  0.00233695  0.30080196  0.24525116     0.79900
C812        C  0.00165033  0.24247048  0.30263306     0.78900
C813        C  0.26574643  0.25270065  0.26056239     0.88300
C814        C  0.26921505  0.25654578  0.23725158    -0.52000
C815        C  0.25685989  0.24454999  0.22496726     0.11200
C816        C  0.24228613  0.22990288  0.23696489     0.22100
C817        C  0.24242455  0.25617017  0.26416597    -0.52700
C818        C  0.23020544  0.24417950  0.25172293     0.11300
C819        C  0.26902602  0.22930064  0.26359841    -0.52200
C820        C  0.25668034  0.21742782  0.25117819     0.11900
H821        H  0.28033866  0.26768806  0.23105847     0.16400
H822        H  0.23226409  0.22016114  0.22685740     0.02100
H823        H  0.23618589  0.26712749  0.27535744     0.16700
H824        H  0.28008209  0.22275760  0.27445095     0.16500
C825        C  0.64578186  0.10272175  0.10424505     0.88300
C826        C  0.63145299  0.08983288  0.11830459    -0.52000
C827        C  0.61903077  0.10156896  0.13080195     0.11200
C828        C  0.62210129  0.12515102  0.12815492     0.22100
C829        C  0.63133311  0.11721730  0.09223055    -0.52700
C830        C  0.61892082  0.12895883  0.10475565     0.11300
C831        C  0.65792231  0.11687141  0.11896756    -0.52200
C832        C  0.64553449  0.12862583  0.13148968     0.11900
H833        H  0.63106357  0.07296855  0.11829460     0.16400
H834        H  0.61198985  0.13471754  0.13835686     0.02100
H835        H  0.63093923  0.11811292  0.07537232     0.16700
H836        H  0.67477131  0.11755991  0.11943658     0.16500
C837        C  0.64550232  0.63336341  0.63402531     0.88300
C838        C  0.63067237  0.64564672  0.62017276    -0.52000
C839        C  0.61822999  0.63340189  0.60821787     0.11200
C840        C  0.62175057  0.60992623  0.61123960     0.22100
C841        C  0.63158001  0.61872945  0.64672950    -0.52700
C842        C  0.61915514  0.60643324  0.63481081     0.11300
C843        C  0.65758244  0.61924873  0.61919169    -0.52200
C844        C  0.64516469  0.60696170  0.60727366     0.11900
H845        H  0.63010728  0.66249777  0.61979151     0.16400
H846        H  0.61163703  0.59990759  0.60152213     0.02100
H847        H  0.63160980  0.61807216  0.66360162     0.16700
H848        H  0.67443066  0.61889641  0.61828112     0.16500
C849        C  0.16682200  0.24567765  0.25085491     0.18800
C850        C  0.15677798  0.25018498  0.23213070    -0.10300
C851        C  0.13508420  0.24999536  0.23119345    -0.11200
C852        C  0.12333286  0.24528387  0.24897382     0.20400
C853        C  0.13337789  0.24086177  0.26771737    -0.13200
C854        C  0.15507146  0.24105249  0.26865386    -0.11500
C855        C  0.10100648  0.24483518  0.24795365     0.01300
C856        C  0.08230753  0.24437628  0.24714561    -0.31500
C857        C  0.18915196  0.24551660  0.25170934     0.02700
C858        C  0.20785810  0.24508966  0.25204959    -0.33200
H859        H  0.16570621  0.25375389  0.21826331     0.13800
H860        H  0.12749132  0.25343488  0.21662279     0.13600
H861        H  0.12445174  0.23719493  0.28156291     0.13400
H862        H  0.16267224  0.23751568  0.28320705     0.12500
C863        C  0.25749386  0.15406613  0.24948301     0.18800
C864        C  0.25959945  0.14214653  0.26756702    -0.10300
C865        C  0.25953526  0.12046414  0.26638193    -0.11200
C866        C  0.25736162  0.11061692  0.24710867     0.20400
C867        C  0.25526576  0.12254080  0.22903167    -0.13200
C868        C  0.25532974  0.14421377  0.23021720    -0.11500
C869        C  0.25721991  0.08830951  0.24589042     0.01300
C870        C  0.25704890  0.06961789  0.24501742    -0.31500
C871        C  0.25746354  0.17637581  0.25064421     0.02700
C872        C  0.25725459  0.19507601  0.25117995    -0.33200
H873        H  0.26126658  0.14959857  0.28254456     0.13800
H874        H  0.26115587  0.11139887  0.28045575     0.13600
H875        H  0.25356532  0.11509463  0.21405384     0.13400
H876        H  0.25367479  0.15327792  0.21613891     0.12500
C877        C  0.25740748  0.24599603  0.16155502     0.18800
C878        C  0.25103457  0.26369291  0.15067898    -0.10300
C879        C  0.25093234  0.26367268  0.12894816    -0.11200
C880        C  0.25719054  0.24595398  0.11801744     0.20400
C881        C  0.26353672  0.22825317  0.12889784    -0.13200
C882        C  0.26363813  0.22827440  0.15062136    -0.11500
C883        C  0.25716851  0.24595055  0.09566585     0.01300
C884        C  0.25724987  0.24597886  0.07694103    -0.31500
C885        C  0.25746240  0.24594500  0.18390454     0.02700
C886        C  0.25736835  0.24554648  0.20262189    -0.33200
H887        H  0.24615770  0.27746580  0.15898063     0.13800
H888        H  0.24599615  0.27744065  0.12068572     0.13600
H889        H  0.26840323  0.21447451  0.12060263     0.13400
H890        H  0.26856477  0.21449528  0.15888357     0.12500
C891        C  0.00286287  0.24514724  0.12425820     0.18800
C892        C  0.01995066  0.25283784  0.11307996    -0.10300
C893        C  0.01937436  0.25364450  0.09138382    -0.11200
C894        C  0.00170591  0.24678015  0.08077365     0.20400
C895        C  0.98463338  0.23902694  0.09193999    -0.13200
C896        C  0.98520975  0.23821924  0.11364829    -0.11500
C897        C  0.00124124  0.24754277  0.05844869     0.01300
C898        C  0.00154604  0.24801076  0.03973813    -0.31500
C899        C  0.00337385  0.24453011  0.14659350     0.02700
C900        C  0.00359382  0.24416176  0.16531296    -0.33200
H901        H  0.03367543  0.25823240  0.12112639     0.13800
H902        H  0.03268189  0.25961596  0.08288936     0.13600
H903        H  0.97092061  0.23362981  0.08388632     0.13400
H904        H  0.97191444  0.23224356  0.12214380     0.12500
C905        C  0.13749649  0.24745588  0.99504307     0.18800
C906        C  0.12607760  0.22979528  0.98946508    -0.10300
C907        C  0.10440808  0.23065106  0.98864767    -0.11200
C908        C  0.09408733  0.24917011  0.99338650     0.20400
C909        C  0.10550403  0.26681578  0.99899153    -0.13200
C910        C  0.12716938  0.26596106  0.99981002    -0.11500
C911        C  0.07180269  0.24999158  0.99260806     0.01300
C912        C  0.05311510  0.25017382  0.99211663    -0.31500
C913        C  0.15979090  0.24667082  0.99576313     0.02700
C914        C  0.17848385  0.24636495  0.99625212    -0.33200
H915        H  0.13390740  0.21541575  0.98574211     0.13800
H916        H  0.09571581  0.21690957  0.98432902     0.13600
H917        H  0.09766981  0.28120273  0.00271752     0.13400
H918        H  0.13585762  0.27970468  0.00413171     0.12500
C919        C  0.00256867  0.12233811  0.24364381     0.18800
C920        C  0.00927536  0.11129865  0.26112480    -0.10300
C921        C  0.00884994  0.08958706  0.26113024    -0.11200
C922        C  0.00169889  0.07882495  0.24365459     0.20400
C923        C  0.99509196  0.08986180  0.22613859    -0.13200
C924        C  0.99551688  0.11156766  0.22613433    -0.11500
C925        C  0.00118934  0.05649013  0.24364381     0.01300
C926        C  0.00096289  0.03778615  0.24330370    -0.31500
C927        C  0.00275605  0.14468455  0.24373102     0.02700
C928        C  0.00276323  0.16340078  0.24388691    -0.33200
H929        H  0.01477073  0.11946845  0.27475042     0.13800
H930        H  0.01403981  0.08121467  0.27473180     0.13600
H931        H  0.98958064  0.08169534  0.21252200     0.13400
H932        H  0.99030542  0.11993802  0.21253147     0.12500
C933        C  0.13474453  0.99007297  0.24335145     0.18800
C934        C  0.12400139  0.98102620  0.26006145    -0.10300
C935        C  0.10229348  0.98054913  0.26018230    -0.11200
C936        C  0.09123501  0.98910945  0.24358620     0.20400
C937        C  0.10197114  0.99818282  0.22688243    -0.13200
C938        C  0.12368316  0.99865980  0.22676132    -0.11500
C939        C  0.06890355  0.98859797  0.24366818     0.01300
C940        C  0.05020014  0.98843979  0.24339394    -0.31500
C941        C  0.15708720  0.99049354  0.24324232     0.02700
C942        C  0.17580331  0.99068151  0.24332665    -0.33200
H943        H  0.13240022  0.97434104  0.27296991     0.13800
H944        H  0.09414802  0.97350820  0.27317807     0.13600
H945        H  0.09356840  0.00485899  0.21397452     0.13400
H946        H  0.13182685  0.00569307  0.21376321     0.12500
C947        C  0.00607872  0.15905031  0.98818971     0.18800
C948        C  0.02530870  0.14894928  0.98810098    -0.10300
C949        C  0.02613458  0.12725746  0.98821777    -0.11200
C950        C  0.00773274  0.11559798  0.98843552     0.20400
C951        C  0.98851498  0.12571018  0.98853810    -0.13200
C952        C  0.98768938  0.14739039  0.98841986    -0.11500
C953        C  0.00850397  0.09328377  0.98847255     0.01300
C954        C  0.00876321  0.07457971  0.98838352    -0.31500
C955        C  0.00522095  0.18135035  0.98827741     0.02700
C956        C  0.00471810  0.20003171  0.98874731    -0.33200
H957        H  0.03961761  0.15782391  0.98796883     0.13800
H958        H  0.04107799  0.11959579  0.98813793     0.13600
H959        H  0.97419738  0.11684368  0.98870779     0.13400
H960        H  0.97274312  0.15504843  0.98853489     0.12500
C961        C  0.00395437  0.99056621  0.15182294     0.18800
C962        C  0.02208374  0.98426764  0.14153324    -0.10300
C963        C  0.02330173  0.98523832  0.11985093    -0.11200
C964        C  0.00639991  0.99252704  0.10837303     0.20400
C965        C  0.98830247  0.99890452  0.11867202    -0.13200
C966        C  0.98708425  0.99793273  0.14035282    -0.11500
C967        C  0.00751758  0.99325699  0.08604637     0.01300
C968        C  0.00812862  0.99370934  0.06732799    -0.31500
C969        C  0.00274523  0.98963496  0.17413026     0.02700
C970        C  0.00207374  0.98918454  0.19283821    -0.33200
H971        H  0.03524089  0.97860212  0.15025878     0.13800
H972        H  0.03736787  0.98026864  0.11204856     0.13600
H973        H  0.97514205  0.00456633  0.10994985     0.13400
H974        H  0.97301720  0.00289597  0.14815562     0.12500
C975        C  0.26012050  0.08258753  0.99240623     0.18800
C976        C  0.27743458  0.09384675  0.99917731    -0.10300
C977        C  0.27659125  0.11548059  0.00035035    -0.11200
C978        C  0.25842291  0.12593403  0.99477419     0.20400
C979        C  0.24105879  0.11467302  0.98808671    -0.13200
C980        C  0.24190143  0.09302010  0.98691408    -0.11500
C981        C  0.25775357  0.14820842  0.99568788     0.01300
C982        C  0.25763229  0.16689096  0.99626581    -0.31500
C983        C  0.26103491  0.06034582  0.99120628     0.02700
C984        C  0.26160910  0.04168674  0.99052981    -0.33200
H985        H  0.29157601  0.08591061  0.00350634     0.13800
H986        H  0.29010133  0.12405235  0.00553262     0.13600
H987        H  0.22693545  0.12261761  0.98373194     0.13400
H988        H  0.22841953  0.08444364  0.98171096     0.12500
C989        C  0.12874850  0.99395686  0.98602804     0.18800
C990        C  0.13948485  0.99028752  0.00452433    -0.10300
C991        C  0.16115885  0.98966940  0.00443661    -0.11200
C992        C  0.17216069  0.99270066  0.98585136     0.20400
C993        C  0.16143693  0.99647221  0.96736024    -0.13200
C994        C  0.13974446  0.99709166  0.96744638    -0.11500
C995        C  0.19443846  0.99208258  0.98586896     0.01300
C996        C  0.21310014  0.99188811  0.98655452    -0.31500
C997        C  0.10646297  0.99435034  0.98613200     0.02700
C998        C  0.08778141  0.99451813  0.98638695    -0.33200
H999        H  0.13111217  0.98786482  0.01896823     0.13800
H1000       H  0.16932917  0.98681004  0.01882548     0.13600
H1001       H  0.16982337  0.99890095  0.95292382     0.13400
H1002       H  0.13156883  0.99995748  0.95307426     0.12500
C1003       C  0.25894890  0.99075399  0.07948561     0.18800
C1004       C  0.27422323  0.98042158  0.09089412    -0.10300
C1005       C  0.27352779  0.98060247  0.11260576    -0.11200
C1006       C  0.25756038  0.99111757  0.12298703     0.20400
C1007       C  0.24231019  0.00149961  0.11157789    -0.13200
C1008       C  0.24300534  0.00131946  0.08985975    -0.11500
C1009       C  0.25679318  0.99114175  0.14531990     0.01300
C1010       C  0.25629861  0.99095126  0.16403454    -0.31500
C1011       C  0.25968509  0.99061356  0.05716067     0.02700
C1012       C  0.26021078  0.99085289  0.03845626    -0.33200
H1013       H  0.28663068  0.97224096  0.08301985     0.13800
H1014       H  0.28540132  0.97253212  0.12128751     0.13600
H1015       H  0.22990465  0.00968182  0.11945313     0.13400
H1016       H  0.23114326  0.00938574  0.08117681     0.12500
C1017       C  0.00391876  0.24030175  0.36593029     0.18800
C1018       C  0.98712770  0.24653368  0.37831515    -0.10300
C1019       C  0.98854343  0.24562637  0.39997036    -0.11200
C1020       C  0.00675221  0.23848414  0.40935949     0.20400
C1021       C  0.02352964  0.23216749  0.39698202    -0.13200
C1022       C  0.02211318  0.23307374  0.37530970    -0.11500
C1023       C  0.00823171  0.23796234  0.43166637     0.01300
C1024       C  0.00891483  0.23810119  0.45038209    -0.31500
C1025       C  0.00251856  0.24136995  0.34363298     0.02700
C1026       C  0.00173483  0.24208760  0.32492893    -0.33200
H1027       H  0.97298344  0.25214063  0.37123865     0.13800
H1028       H  0.97547900  0.25057177  0.40939513     0.13600
H1029       H  0.03769066  0.22663922  0.40406731     0.13400
H1030       H  0.03518953  0.22820760  0.36588691     0.12500
C1031       C  0.00709364  0.37273429  0.49697474     0.18800
C1032       C  0.02439700  0.36242001  0.48874046    -0.10300
C1033       C  0.02561672  0.34075232  0.48977303    -0.11200
C1034       C  0.00955319  0.32925721  0.49906501     0.20400
C1035       C  0.99227400  0.33957203  0.50735833    -0.13200
C1036       C  0.99105351  0.36124336  0.50632662    -0.11500
C1037       C  0.01057565  0.30690055  0.49970986     0.01300
C1038       C  0.01086333  0.28816360  0.49980429    -0.31500
C1039       C  0.00584590  0.39506640  0.49586542     0.02700
C1040       C  0.00500919  0.41377691  0.49509243    -0.33200
H1041       H  0.03690459  0.37111532  0.48149049     0.13800
H1042       H  0.03903251  0.33296555  0.48325469     0.13600
H1043       H  0.97972920  0.33086800  0.51453105     0.13400
H1044       H  0.97760356  0.36902151  0.51276747     0.12500
C1045       C  0.00457796  0.49673279  0.37360350     0.18800
C1046       C  0.98968076  0.48582358  0.36214742    -0.10300
C1047       C  0.99012594  0.48646871  0.34043149    -0.11200
C1048       C  0.00546900  0.49803352  0.33007536     0.20400
C1049       C  0.02025180  0.50910430  0.34152724    -0.13200
C1050       C  0.01980657  0.50845900  0.36324984    -0.11500
C1051       C  0.00621047  0.49825574  0.30773081     0.01300
C1052       C  0.00673409  0.49807517  0.28901363    -0.31500
C1053       C  0.00434818  0.49573545  0.39594455     0.02700
C1054       C  0.00416705  0.49491898  0.41465944    -0.33200
H1055       H  0.97781478  0.47673102  0.36999491     0.13800
H1056       H  0.97861492  0.47785989  0.33172736     0.13600
H1057       H  0.03217739  0.51810560  0.33367369     0.13400
H1058       H  0.03137960  0.51697789  0.37195159     0.12500
C1059       C  0.00369730  0.36413167  0.24314336     0.18800
C1060       C  0.00174357  0.37608275  0.26121231    -0.10300
C1061       C  0.00265075  0.39775241  0.26004632    -0.11200
C1062       C  0.00552843  0.40759353  0.24081036     0.20400
C1063       C  0.00749566  0.39564853  0.22273478    -0.13200
C1064       C  0.00658770  0.37396985  0.22390065    -0.11500
C1065       C  0.00635326  0.42991582  0.23969131     0.01300
C1066       C  0.00679187  0.44863143  0.23936044    -0.31500
C1067       C  0.00284404  0.34180825  0.24433345     0.02700
C1068       C  0.00238659  0.32309544  0.24502276    -0.33200
H1069       H  0.99952552  0.36865891  0.27617834     0.13800
H1070       H  0.00109925  0.40682785  0.27412415     0.13600
H1071       H  0.00971510  0.40307836  0.20777532     0.13400
H1072       H  0.00813945  0.36489440  0.20982981     0.12500
C1073       C  0.57886916  0.06955455  0.16823622     0.18800
C1074       C  0.57687379  0.04840917  0.16350648    -0.10300
C1075       C  0.56432373  0.03554293  0.17584156    -0.11200
C1076       C  0.55369177  0.04373823  0.19299565     0.20400
C1077       C  0.55552701  0.06492207  0.19761635    -0.13200
C1078       C  0.56808844  0.07779866  0.18527365    -0.11500
C1079       C  0.54117980  0.03036121  0.20599987     0.01300
C1080       C  0.53085698  0.01906443  0.21693619    -0.31500
C1081       C  0.59231487  0.08255263  0.15579254     0.02700
C1082       C  0.60418280  0.09217335  0.14482771    -0.33200
H1083       H  0.58513801  0.04184805  0.15038857     0.13800
H1084       H  0.56303318  0.01920553  0.17210008     0.13600
H1085       H  0.54737388  0.07144322  0.21083913     0.13400
H1086       H  0.56951295  0.09411274  0.18909831     0.12500
C1087       C  0.37638730  0.98913758  0.24062942     0.18800
C1088       C  0.38691921  0.98345700  0.22240951    -0.10300
C1089       C  0.40859356  0.98471470  0.22145196    -0.11200
C1090       C  0.41980265  0.99167476  0.23870892     0.20400
C1091       C  0.40926505  0.99731073  0.25692610    -0.13200
C1092       C  0.38761081  0.99605460  0.25788411    -0.11500
C1093       C  0.44209628  0.99291675  0.23786505     0.01300
C1094       C  0.46078464  0.99383789  0.23783430    -0.31500
C1095       C  0.35407715  0.98819412  0.24154233     0.02700
C1096       C  0.33537434  0.98790168  0.24226281    -0.33200
H1097       H  0.37839029  0.97812388  0.20896692     0.13800
H1098       H  0.41658681  0.98028877  0.20730065     0.13600
H1099       H  0.41778839  0.00268438  0.27037370     0.13400
H1100       H  0.37962769  0.00052035  0.27203277     0.12500
C1101       C  0.50848381  0.99564449  0.32922566     0.18800
C1102       C  0.49282197  0.98426553  0.33933511    -0.10300
C1103       C  0.49220641  0.98329494  0.36106179    -0.11200
C1104       C  0.50725714  0.99369097  0.37280862     0.20400
C1105       C  0.52292057  0.00505882  0.36269133    -0.13200
C1106       C  0.52353613  0.00602979  0.34096838    -0.11500
C1107       C  0.50662905  0.99278253  0.39520172     0.01300
C1108       C  0.50635115  0.99235436  0.41396101    -0.31500
C1109       C  0.50914198  0.99653917  0.30684431     0.02700
C1110       C  0.50942350  0.99681957  0.28809423    -0.33200
H1111       H  0.48111293  0.97615098  0.33043202     0.13800
H1112       H  0.48001665  0.97446041  0.36868497     0.13600
H1113       H  0.53464382  0.01316879  0.37159254     0.13400
H1114       H  0.53573347  0.01485571  0.33334239     0.12500
C1115       C  0.50149584  0.15744043  0.49089519     0.18800
C1116       C  0.50558267  0.14705575  0.50957623    -0.10300
C1117       C  0.50720419  0.12540045  0.50989806    -0.11200
C1118       C  0.50477272  0.11399704  0.49153974     0.20400
C1119       C  0.50074900  0.12438480  0.47284716    -0.13200
C1120       C  0.49912635  0.14604535  0.47252457    -0.11500
C1121       C  0.50609916  0.09166141  0.49194927     0.01300
C1122       C  0.50677520  0.07294275  0.49240906    -0.31500
C1123       C  0.50002295  0.17976595  0.49057802     0.02700
C1124       C  0.49946576  0.19848857  0.49075330    -0.33200
H1125       H  0.50751113  0.15568887  0.52386671     0.13800
H1126       H  0.51029968  0.11755483  0.52445108     0.13600
H1127       H  0.49881898  0.11574513  0.45855252     0.13400
H1128       H  0.49602874  0.15389453  0.45797745     0.12500
C1129       C  0.43046689  0.32249720  0.42501956     0.18800
C1130       C  0.45194456  0.32197553  0.42139066    -0.10300
C1131       C  0.46462121  0.30882988  0.43313983    -0.11200
C1132       C  0.45591277  0.29607216  0.44858443     0.20400
C1133       C  0.43446367  0.29672716  0.45232125    -0.13200
C1134       C  0.42179657  0.30986465  0.44058159    -0.11500
C1135       C  0.46888112  0.28222457  0.46049515     0.01300
C1136       C  0.47949240  0.27061913  0.47069069    -0.31500
C1137       C  0.41718574  0.33511513  0.41212878     0.02700
C1138       C  0.40553987  0.34422855  0.40062916    -0.33200
H1139       H  0.45885246  0.33154357  0.40932978     0.13800
H1140       H  0.48116899  0.30849596  0.43007238     0.13600
H1141       H  0.42751102  0.28696504  0.46419633     0.13400
H1142       H  0.40521458  0.30999116  0.44347721     0.12500
C1143       C  0.30306123  0.28903031  0.29750723     0.18800
C1144       C  0.31404720  0.30574473  0.28879221    -0.10300
C1145       C  0.32656977  0.31828468  0.30133160    -0.11200
C1146       C  0.32816962  0.31417512  0.32264977     0.20400
C1147       C  0.31725065  0.29741155  0.33134495    -0.13200
C1148       C  0.30472922  0.28487236  0.31880751    -0.11500
C1149       C  0.34088526  0.32722205  0.33559632     0.01300
C1150       C  0.35149862  0.33827136  0.34635122    -0.31500
C1151       C  0.29000858  0.27624009  0.28464018     0.02700
C1152       C  0.27903841  0.26559379  0.27383898    -0.33200
H1153       H  0.31288643  0.30910720  0.27234842     0.13800
H1154       H  0.33494076  0.33119607  0.29443230     0.13600
H1155       H  0.31837005  0.29407855  0.34780778     0.13400
H1156       H  0.29631616  0.27199171  0.32571818     0.12500
C1157       C  0.42921996  0.41783681  0.32585909     0.18800
C1158       C  0.44955484  0.42304457  0.33154874    -0.10300
C1159       C  0.46195713  0.43516981  0.31828721    -0.11200
C1160       C  0.45411621  0.44214471  0.29923629     0.20400
C1161       C  0.43375119  0.43700953  0.29359970    -0.13200
C1162       C  0.42135780  0.42489631  0.30685123    -0.11500
C1163       C  0.46691881  0.45454012  0.28549046     0.01300
C1164       C  0.47755392  0.46507565  0.27406105    -0.31500
C1165       C  0.41655865  0.40478483  0.33911545     0.02700
C1166       C  0.40535503  0.39324064  0.34889346    -0.33200
H1167       H  0.45585686  0.41763425  0.34615523     0.13800
H1168       H  0.47766590  0.43903501  0.32284538     0.13600
H1169       H  0.42748403  0.44229899  0.27893772     0.13400
H1170       H  0.40570114  0.42092813  0.30222115     0.12500
C1171       C  0.50045368  0.48867426  0.16130619     0.18800
C1172       C  0.50962262  0.47269162  0.14974878    -0.10300
C1173       C  0.51131896  0.47438555  0.12811666    -0.11200
C1174       C  0.50388550  0.49208003  0.11791460     0.20400
C1175       C  0.49473881  0.50806802  0.12948039    -0.13200
C1176       C  0.49304281  0.50637441  0.15110708    -0.11500
C1177       C  0.50538082  0.49368528  0.09559686     0.01300
C1178       C  0.50627515  0.49463408  0.07687253    -0.31500
C1179       C  0.49905905  0.48716833  0.18362803     0.02700
C1180       C  0.49848813  0.48662916  0.20236937    -0.33200
H1181       H  0.51548771  0.45897174  0.15745026     0.13800
H1182       H  0.51840101  0.46190385  0.11935222     0.13600
H1183       H  0.48891009  0.52181243  0.12178720     0.13400
H1184       H  0.48599999  0.51887722  0.15987570     0.12500
C1185       C  0.16787564  0.48951327  0.49071403     0.18800
C1186       C  0.15791198  0.49105040  0.51006195    -0.10300
C1187       C  0.13625491  0.49236570  0.51119501    -0.11200
C1188       C  0.12443850  0.49217140  0.49298012     0.20400
C1189       C  0.13439634  0.49058618  0.47363334    -0.13200
C1190       C  0.15605720  0.48927090  0.47250089    -0.11500
C1191       C  0.10212528  0.49344475  0.49409930     0.01300
C1192       C  0.08341040  0.49414096  0.49462832    -0.31500
C1193       C  0.19020646  0.48852502  0.48962389     0.02700
C1194       C  0.20893653  0.48824250  0.48947015    -0.33200
H1195       H  0.16688372  0.49129066  0.52424719     0.13800
H1196       H  0.12874194  0.49355081  0.52624133     0.13600
H1197       H  0.12542523  0.49038662  0.45944778     0.13400
H1198       H  0.16357741  0.48812552  0.45745068     0.12500
C1199       C  0.30659539  0.44420806  0.44735186     0.18800
C1200       C  0.31638291  0.42685818  0.45601477    -0.10300
C1201       C  0.32958613  0.41459869  0.44383349    -0.11200
C1202       C  0.33313126  0.41961912  0.42291272     0.20400
C1203       C  0.32350938  0.43709922  0.41430713    -0.13200
C1204       C  0.31030483  0.44936236  0.42648985    -0.11500
C1205       C  0.34575939  0.40627390  0.41005059     0.01300
C1206       C  0.35506201  0.39438010  0.39891230    -0.31500
C1207       C  0.29260075  0.45655954  0.45977208     0.02700
C1208       C  0.28092669  0.46696047  0.47014838    -0.33200
H1209       H  0.31365882  0.42270103  0.47211713     0.13800
H1210       H  0.33682348  0.40106665  0.45065477     0.13600
H1211       H  0.32601094  0.44109705  0.39812861     0.13400
H1212       H  0.30284838  0.46272865  0.41960188     0.12500
C1213       C  0.99987041  0.65828462  0.48970750     0.18800
C1214       C  0.98743774  0.64616002  0.47663871    -0.10300
C1215       C  0.98822584  0.62448121  0.47782279    -0.11200
C1216       C  0.00144983  0.61482343  0.49208369     0.20400
C1217       C  0.01384410  0.62695818  0.50517296    -0.13200
C1218       C  0.01305628  0.64862538  0.50399026    -0.11500
C1219       C  0.00233028  0.59250018  0.49323618     0.01300
C1220       C  0.00290128  0.57379186  0.49396265    -0.31500
C1221       C  0.99926567  0.68060114  0.48842419     0.02700
C1222       C  0.99932334  0.69931134  0.48772958    -0.33200
H1223       H  0.97719252  0.65344840  0.46553020     0.13800
H1224       H  0.97857432  0.61527030  0.46762453     0.13600
H1225       H  0.02413109  0.61967502  0.51626099     0.13400
H1226       H  0.02274452  0.65783539  0.51416329     0.12500
C1227       C  0.62732572  0.99081111  0.49178688     0.18800
C1228       C  0.63795138  0.97302860  0.49829477    -0.10300
C1229       C  0.65963421  0.97233939  0.49711991    -0.11200
C1230       C  0.67078968  0.98942396  0.48941406     0.20400
C1231       C  0.66017224  0.00723476  0.48298247    -0.13200
C1232       C  0.63849291  0.00792343  0.48415638    -0.11500
C1233       C  0.69310528  0.98876370  0.48825932     0.01300
C1234       C  0.71181240  0.98854439  0.48763214    -0.31500
C1235       C  0.60498877  0.99142919  0.49273679     0.02700
C1236       C  0.58627284  0.99188599  0.49327418    -0.33200
H1237       H  0.62948296  0.95970408  0.50422132     0.13800
H1238       H  0.66768227  0.95851333  0.50218970     0.13600
H1239       H  0.66863946  0.02055544  0.47705497     0.13400
H1240       H  0.63045071  0.02174981  0.47908154     0.12500
C1241       C  0.95483150  0.94247403  0.28667533     0.18800
C1242       C  0.94614162  0.92413936  0.27880912    -0.10300
C1243       C  0.93367690  0.91158069  0.29156161    -0.11200
C1244       C  0.92985803  0.91731703  0.31222565     0.20400
C1245       C  0.93854817  0.93564261  0.32006674    -0.13200
C1246       C  0.95099705  0.94818540  0.30732986    -0.11500
C1247       C  0.91708152  0.90446469  0.32544116     0.01300
C1248       C  0.90649192  0.89396650  0.33687207    -0.31500
C1249       C  0.96774065  0.95540580  0.27365367     0.02700
C1250       C  0.97868930  0.96638772  0.26303600    -0.33200
H1251       H  0.94901153  0.91956233  0.26287092     0.13800
H1252       H  0.92704800  0.89744324  0.28533728     0.13600
H1253       H  0.93570715  0.94022301  0.33602096     0.13400
H1254       H  0.95764314  0.96231629  0.31358492     0.12500
C1255       C  0.95352696  0.79299564  0.44156191     0.18800
C1256       C  0.95569705  0.79332254  0.41989160    -0.10300
C1257       C  0.94245700  0.80551834  0.40781382    -0.11200
C1258       C  0.92693225  0.81745577  0.41731028     0.20400
C1259       C  0.92471729  0.81709652  0.43898145    -0.13200
C1260       C  0.93796632  0.80488824  0.45106905    -0.11500
C1261       C  0.91381091  0.83051182  0.40478386     0.01300
C1262       C  0.90413182  0.84183139  0.39346011    -0.31500
C1263       C  0.96724088  0.78049057  0.45401499     0.02700
C1264       C  0.97853999  0.76996342  0.46457843    -0.33200
H1265       H  0.96765629  0.78421441  0.41234568     0.13800
H1266       H  0.94440323  0.80573847  0.39108626     0.13600
H1267       H  0.91285301  0.82632781  0.44652669     0.13400
H1268       H  0.93612880  0.80477588  0.46780694     0.12500
C1269       C  0.82933968  0.91389550  0.41780707     0.18800
C1270       C  0.80833811  0.91695671  0.41313559    -0.10300
C1271       C  0.79623501  0.93023664  0.42538646    -0.11200
C1272       C  0.80506786  0.94056497  0.44235896     0.20400
C1273       C  0.82601913  0.93736913  0.44712635    -0.13200
C1274       C  0.83811325  0.92409391  0.43488345    -0.11500
C1275       C  0.79269540  0.95448662  0.45480419     0.01300
C1276       C  0.78230228  0.96600871  0.46533473    -0.31500
C1277       C  0.84214787  0.90111825  0.40457681     0.02700
C1278       C  0.85351521  0.89167866  0.39301228    -0.33200
H1279       H  0.80138793  0.90926235  0.39991212     0.13800
H1280       H  0.78005871  0.93256330  0.42154444     0.13600
H1281       H  0.83303325  0.94524452  0.46020332     0.13400
H1282       H  0.85435726  0.92195667  0.43859637     0.12500
C1283       C  0.80252803  0.79069089  0.29792920     0.18800
C1284       C  0.81785894  0.78144917  0.31020879    -0.10300
C1285       C  0.83015568  0.79367121  0.32329283    -0.11200
C1286       C  0.82714428  0.81518536  0.32418609     0.20400
C1287       C  0.81166877  0.82437479  0.31206468    -0.13200
C1288       C  0.79938908  0.81216691  0.29899039    -0.11500
C1289       C  0.84064557  0.82804280  0.33652628     0.01300
C1290       C  0.85250885  0.83965933  0.34518095    -0.31500
C1291       C  0.79020802  0.77823148  0.28405143     0.02700
C1292       C  0.77987459  0.76785588  0.27239174    -0.33200
H1293       H  0.82043823  0.76486243  0.30950928     0.13800
H1294       H  0.84216540  0.78640663  0.33246765     0.13600
H1295       H  0.80929482  0.84101046  0.31250258     0.13400
H1296       H  0.78760298  0.81949091  0.28956555     0.12500
C1297       C  0.59082277  0.24476568  0.49294083     0.18800
C1298       C  0.60069036  0.23836610  0.51121076    -0.10300
C1299       C  0.62236696  0.23724346  0.51195432    -0.11200
C1300       C  0.63426636  0.24250030  0.49442418     0.20400
C1301       C  0.62438850  0.24882643  0.47614545    -0.13200
C1302       C  0.60272513  0.24994945  0.47540340    -0.11500
C1303       C  0.65658684  0.24164876  0.49519679     0.01300
C1304       C  0.67530373  0.24136774  0.49548338    -0.31500
C1305       C  0.56852024  0.24599604  0.49219832     0.02700
C1306       C  0.54982093  0.24673983  0.49188944    -0.33200
H1307       H  0.59164373  0.23429629  0.52485873     0.13800
H1308       H  0.62983070  0.23234755  0.52617291     0.13600
H1309       H  0.63343300  0.25294335  0.46250036     0.13400
H1310       H  0.59526539  0.25489419  0.46118713     0.12500
C1311       C  0.75821120  0.12205480  0.48961876     0.18800
C1312       C  0.77570941  0.11247744  0.48091265    -0.10300
C1313       C  0.77678162  0.09081591  0.47982168    -0.11200
C1314       C  0.76035431  0.07863182  0.48741855     0.20400
C1315       C  0.74281556  0.08821666  0.49603276    -0.13200
C1316       C  0.74174310  0.10987124  0.49712403    -0.11500
C1317       C  0.76150566  0.05632390  0.48658504     0.01300
C1318       C  0.76187566  0.03760937  0.48641438    -0.31500
C1319       C  0.75723998  0.14434161  0.49100567     0.02700
C1320       C  0.75662603  0.16301462  0.49215068    -0.33200
H1321       H  0.78853321  0.12174035  0.47505542     0.13800
H1322       H  0.79042023  0.08358089  0.47313727     0.13600
H1323       H  0.73002285  0.07895565  0.50196380     0.13400
H1324       H  0.72813885  0.11709775  0.50388031     0.12500
C1325       C  0.91950038  0.24007857  0.50033615     0.18800
C1326       C  0.90791744  0.24353146  0.51848524    -0.10300
C1327       C  0.88622812  0.24431396  0.51762718    -0.11200
C1328       C  0.87604150  0.24166551  0.49861785     0.20400
C1329       C  0.88763302  0.23811577  0.48050201    -0.13200
C1330       C  0.90930372  0.23733395  0.48135797    -0.11500
C1331       C  0.85373277  0.24261396  0.49765943     0.01300
C1332       C  0.83504548  0.24323948  0.49678354    -0.31500
C1333       C  0.94182656  0.23960518  0.50105466     0.02700
C1334       C  0.96054049  0.23944708  0.50100446    -0.33200
H1335       H  0.91563524  0.24568779  0.53323484     0.13800
H1336       H  0.87742132  0.24704119  0.53174124     0.13600
H1337       H  0.87992750  0.23601943  0.46572508     0.13400
H1338       H  0.91810379  0.23467079  0.46722873     0.12500
C1339       C  0.75700277  0.24307803  0.61553812     0.18800
C1340       C  0.74064236  0.23607562  0.62816173    -0.10300
C1341       C  0.74217844  0.23745685  0.64977438    -0.11200
C1342       C  0.76006733  0.24585782  0.65882156     0.20400
C1343       C  0.77645594  0.25278769  0.64620059    -0.13200
C1344       C  0.77492073  0.25140533  0.62459251    -0.11500
C1345       C  0.76151732  0.24742516  0.68103358     0.01300
C1346       C  0.76219908  0.24845446  0.69969252    -0.31500
C1347       C  0.75540991  0.24192400  0.59330606     0.02700
C1348       C  0.75466535  0.24146861  0.57462016    -0.33200
H1349       H  0.72671777  0.22962209  0.62130987     0.13800
H1350       H  0.72942585  0.23204425  0.65941482     0.13600
H1351       H  0.79035359  0.25929475  0.65304779     0.13400
H1352       H  0.78765214  0.25687248  0.61495568     0.12500
C1353       C  0.76108628  0.99075742  0.57726829     0.18800
C1354       C  0.74661446  0.00379485  0.58693691    -0.10300
C1355       C  0.74633159  0.00569036  0.60856689    -0.11200
C1356       C  0.76053190  0.99455752  0.62059499     0.20400
C1357       C  0.77496529  0.98147269  0.61093524    -0.13200
C1358       C  0.77524686  0.97957845  0.58930099    -0.11500
C1359       C  0.76011941  0.99631568  0.64284437     0.01300
C1360       C  0.75964624  0.99718655  0.66152590    -0.31500
C1361       C  0.76153805  0.98912151  0.55500494     0.02700
C1362       C  0.76159835  0.98848379  0.53630831    -0.33200
H1363       H  0.73560301  0.01251698  0.57775674     0.13800
H1364       H  0.73507539  0.01579497  0.61589262     0.13600
H1365       H  0.78596898  0.97275106  0.62011583     0.13400
H1366       H  0.78650536  0.96946544  0.58196835     0.12500
C1367       C  0.76273480  0.16017404  0.74917600     0.18800
C1368       C  0.78077457  0.14828754  0.75120929    -0.10300
C1369       C  0.77972935  0.12665902  0.74964999    -0.11200
C1370       C  0.76064530  0.11683743  0.74602973     0.20400
C1371       C  0.74261035  0.12873119  0.74396869    -0.13200
C1372       C  0.74365552  0.15035487  0.74552731    -0.11500
C1373       C  0.75956593  0.09457914  0.74453276     0.01300
C1374       C  0.75880426  0.07591448  0.74347980    -0.31500
C1375       C  0.76378401  0.18244056  0.75045196     0.02700
C1376       C  0.76401317  0.20113733  0.75073949    -0.33200
H1377       H  0.79561869  0.15573063  0.75395476     0.13800
H1378       H  0.79377452  0.11760546  0.75126096     0.13600
H1379       H  0.72777812  0.12130111  0.74116066     0.13400
H1380       H  0.72962452  0.15940788  0.74385185     0.12500
C1381       C  0.88149766  0.24099082  0.24268143     0.18800
C1382       C  0.87176703  0.22739859  0.22877372    -0.10300
C1383       C  0.85008347  0.22628334  0.22799512    -0.11200
C1384       C  0.83802047  0.23875577  0.24112054     0.20400
C1385       C  0.84774924  0.25237015  0.25500517    -0.13200
C1386       C  0.86942829  0.25348481  0.25578341    -0.11500
C1387       C  0.81569542  0.23764215  0.24038694     0.01300
C1388       C  0.79697462  0.23724358  0.24025181    -0.31500
C1389       C  0.90382848  0.24202943  0.24356004     0.02700
C1390       C  0.92254231  0.24263317  0.24416076    -0.33200
H1391       H  0.88093473  0.21765843  0.21856776     0.13800
H1392       H  0.84273852  0.21570782  0.21719308     0.13600
H1393       H  0.83858352  0.26209565  0.26522266     0.13400
H1394       H  0.87676823  0.26404997  0.26660171     0.12500
C1395       C  0.70088455  0.19261566  0.19644723     0.18800
C1396       C  0.69072859  0.20115740  0.17924822    -0.10300
C1397       C  0.67802458  0.18867659  0.16681318    -0.11200
C1398       C  0.67536790  0.16758431  0.17152313     0.20400
C1399       C  0.68541440  0.15907948  0.18880830    -0.13200
C1400       C  0.69811737  0.17155823  0.20124070    -0.11500
C1401       C  0.66314722  0.15446508  0.15812629     0.01300
C1402       C  0.65417472  0.14299178  0.14634711    -0.31500
C1403       C  0.71427597  0.20538296  0.20902994     0.02700
C1404       C  0.72549764  0.21607199  0.21955345    -0.33200
H1405       H  0.69275328  0.21740870  0.17536821     0.13800
H1406       H  0.67045510  0.19541441  0.15342336     0.13600
H1407       H  0.68359895  0.14277513  0.19254256     0.13400
H1408       H  0.70589127  0.16476285  0.21447866     0.12500
C1409       C  0.75202999  0.24129147  0.37453789     0.18800
C1410       C  0.73585901  0.25128400  0.36409332    -0.10300
C1411       C  0.73447664  0.24995202  0.34246509    -0.11200
C1412       C  0.74923969  0.23860038  0.33122319     0.20400
C1413       C  0.76536844  0.22855278  0.34167895    -0.13200
C1414       C  0.76675172  0.22988365  0.36330365    -0.11500
C1415       C  0.74813715  0.23765743  0.30894524     0.01300
C1416       C  0.74774857  0.23739002  0.29024312    -0.31500
C1417       C  0.75343855  0.24262430  0.39677235     0.02700
C1418       C  0.75439164  0.24340362  0.41543545    -0.33200
H1419       H  0.72438403  0.26010864  0.37264448     0.13800
H1420       H  0.72197920  0.25782802  0.33451488     0.13600
H1421       H  0.77689344  0.21978897  0.33312071     0.13400
H1422       H  0.77929265  0.22207211  0.37124442     0.12500
C1423       C  0.75917671  0.65640182  0.24727670     0.18800
C1424       C  0.75888380  0.64490715  0.26576431    -0.10300
C1425       C  0.75781076  0.62323569  0.26509325    -0.11200
C1426       C  0.75701219  0.61297349  0.24593396     0.20400
C1427       C  0.75741350  0.62446698  0.22744242    -0.13200
C1428       C  0.75848565  0.64614005  0.22811271    -0.11500
C1429       C  0.75574146  0.59068180  0.24526300     0.01300
C1430       C  0.75481236  0.57199811  0.24480763    -0.31500
C1431       C  0.75976192  0.67870924  0.24796584     0.02700
C1432       C  0.75972460  0.69740371  0.24836944    -0.33200
H1433       H  0.75937503  0.65268899  0.28066022     0.13800
H1434       H  0.75752790  0.61449736  0.27948691     0.13600
H1435       H  0.75682212  0.61668983  0.21254432     0.13400
H1436       H  0.75866655  0.65488359  0.21372727     0.12500
C1437       C  0.58923874  0.48813497  0.24910041     0.18800
C1438       C  0.60105449  0.49079751  0.26712187    -0.10300
C1439       C  0.62272960  0.49167588  0.26583343    -0.11200
C1440       C  0.63270523  0.48991261  0.24651820     0.20400
C1441       C  0.62089239  0.48722055  0.22849394    -0.13200
C1442       C  0.59921201  0.48634304  0.22978258    -0.11500
C1443       C  0.65502872  0.49081285  0.24524607     0.01300
C1444       C  0.67374137  0.49143379  0.24454903    -0.31500
C1445       C  0.56690975  0.48747602  0.25037678     0.02700
C1446       C  0.54819301  0.48726448  0.25106029    -0.33200
H1447       H  0.59352108  0.49223308  0.28213351     0.13800
H1448       H  0.63170058  0.49374791  0.27987800     0.13600
H1449       H  0.62842460  0.48582491  0.21348133     0.13400
H1450       H  0.59023882  0.48431307  0.21574076     0.12500
C1451       C  0.75246597  0.37139298  0.24287104     0.18800
C1452       C  0.74029659  0.36162640  0.22773981    -0.10300
C1453       C  0.73903980  0.33995105  0.22702613    -0.11200
C1454       C  0.74994706  0.32793944  0.24144694     0.20400
C1455       C  0.76215554  0.33770319  0.25654222    -0.13200
C1456       C  0.76341174  0.35937345  0.25725616    -0.11500
C1457       C  0.74866956  0.30562880  0.24079418     0.01300
C1458       C  0.74807315  0.28692035  0.24067248    -0.31500
C1459       C  0.75355518  0.39371524  0.24372944     0.02700
C1460       C  0.75406267  0.41242771  0.24427865    -0.33200
H1461       H  0.73175529  0.37075913  0.21654152     0.13800
H1462       H  0.72957063  0.33257910  0.21528369     0.13600
H1463       H  0.77067110  0.32856932  0.26776428     0.13400
H1464       H  0.77285635  0.36674127  0.26902494     0.12500
C1465       C  0.91782583  0.49826401  0.23970055     0.18800
C1466       C  0.90832129  0.48099417  0.24903702    -0.10300
C1467       C  0.88667617  0.47964143  0.25020101    -0.11200
C1468       C  0.87440534  0.49556329  0.24204641     0.20400
C1469       C  0.88389736  0.51284393  0.23268808    -0.13200
C1470       C  0.90556614  0.51419766  0.23152299    -0.11500
C1471       C  0.85211180  0.49416198  0.24326677     0.01300
C1472       C  0.83341873  0.49322609  0.24404759    -0.31500
C1473       C  0.94013156  0.49953825  0.23865578     0.02700
C1474       C  0.95885205  0.49965841  0.23847156    -0.33200
H1475       H  0.91765189  0.46858245  0.25542745     0.13800
H1476       H  0.87951642  0.46620487  0.25746150     0.13600
H1477       H  0.87456125  0.52524671  0.22631941     0.13400
H1478       H  0.91273842  0.52762708  0.22428248     0.12500
C1479       C  0.88265321  0.49500664  0.49735809     0.18800
C1480       C  0.87072454  0.47752213  0.49230565    -0.10300
C1481       C  0.84905368  0.47838354  0.49345769    -0.11200
C1482       C  0.83919556  0.49672507  0.49967542     0.20400
C1483       C  0.85112176  0.51419842  0.50478525    -0.13200
C1484       C  0.87280187  0.51333748  0.50363330    -0.11500
C1485       C  0.81686878  0.49763266  0.50047643     0.01300
C1486       C  0.79814882  0.49786542  0.50052561    -0.31500
C1487       C  0.90496631  0.49414260  0.49613556     0.02700
C1488       C  0.92366882  0.49360911  0.49532070    -0.33200
H1489       H  0.87816264  0.46326740  0.48744939     0.13800
H1490       H  0.83998716  0.46478498  0.48943639     0.13600
H1491       H  0.84367257  0.52847303  0.50958017     0.13400
H1492       H  0.88187018  0.52695180  0.50759102     0.12500
C1493       C  0.75068224  0.49417744  0.36553103     0.18800
C1494       C  0.74577328  0.51289442  0.37546535    -0.10300
C1495       C  0.74527514  0.51395186  0.39718620    -0.11200
C1496       C  0.74967411  0.49629260  0.40908595     0.20400
C1497       C  0.75449712  0.47756369  0.39915235    -0.13200
C1498       C  0.75499509  0.47650683  0.37744222    -0.11500
C1499       C  0.74936850  0.49734336  0.43144983     0.01300
C1500       C  0.74935212  0.49768925  0.45019035    -0.31500
C1501       C  0.75145174  0.49315644  0.34315949     0.02700
C1502       C  0.75212133  0.49255834  0.32442011    -0.33200
H1503       H  0.74240499  0.52666123  0.36643167     0.13800
H1504       H  0.74152408  0.52851590  0.40468331     0.13600
H1505       H  0.75792428  0.46380565  0.40818744     0.13400
H1506       H  0.75880572  0.46194760  0.36995344     0.12500
C1507       C  0.67593822  0.56726204  0.56879986     0.18800
C1508       C  0.67063068  0.56293010  0.54816442    -0.10300
C1509       C  0.68357290  0.55046715  0.53590922    -0.11200
C1510       C  0.70189533  0.54229598  0.54421430     0.20400
C1511       C  0.70715238  0.54658019  0.56486584    -0.13200
C1512       C  0.69422328  0.55902623  0.57710944    -0.11500
C1513       C  0.71533852  0.52961945  0.53156402     0.01300
C1514       C  0.72659823  0.51899707  0.52098345    -0.31500
C1515       C  0.66308610  0.58061420  0.58136399     0.02700
C1516       C  0.65381464  0.59232004  0.59268843    -0.33200
H1517       H  0.65658735  0.56927666  0.54152890     0.13800
H1518       H  0.67934584  0.54727459  0.51994751     0.13600
H1519       H  0.72127443  0.54037555  0.57146744     0.13400
H1520       H  0.69854672  0.56233763  0.59301283     0.12500
C1521       C  0.75132066  0.36367895  0.49778152     0.18800
C1522       C  0.76043463  0.37454309  0.51424989    -0.10300
C1523       C  0.75941871  0.39621952  0.51491895    -0.11200
C1524       C  0.74926963  0.40714262  0.49913465     0.20400
C1525       C  0.74006039  0.39627664  0.48271811    -0.13200
C1526       C  0.74107582  0.37459617  0.48204941    -0.11500
C1527       C  0.74866381  0.42948125  0.49957178     0.01300
C1528       C  0.74860765  0.44819809  0.49964119    -0.31500
C1529       C  0.75252567  0.34136955  0.49701061     0.02700
C1530       C  0.75342507  0.32267875  0.49643992    -0.33200
H1531       H  0.76837832  0.36627205  0.52650826     0.13800
H1532       H  0.76662731  0.40445805  0.52766898     0.13600
H1533       H  0.73220685  0.40455530  0.47041233     0.13400
H1534       H  0.73395394  0.36636389  0.46924865     0.12500
C1535       C  0.50460747  0.61543325  0.99289220     0.18800
C1536       C  0.52066427  0.62697525  0.98367428    -0.10300
C1537       C  0.51938778  0.64861389  0.98278327    -0.11200
C1538       C  0.50204264  0.65877368  0.99108780     0.20400
C1539       C  0.48591353  0.64722398  0.00016151    -0.13200
C1540       C  0.48719009  0.62558638  0.00105218    -0.11500
C1541       C  0.50106584  0.68104983  0.99075334     0.01300
C1542       C  0.50081177  0.69973340  0.99088250    -0.31500
C1543       C  0.50600907  0.59320073  0.99406231     0.02700
C1544       C  0.50686155  0.57455099  0.99501659    -0.33200
H1545       H  0.53418377  0.61926857  0.97729309     0.13800
H1546       H  0.53195620  0.65741479  0.97576966     0.13600
H1547       H  0.47245461  0.65494046  0.00665963     0.13400
H1548       H  0.47467743  0.61679395  0.00818581     0.12500
C1549       C  0.50487276  0.99209761  0.61531697     0.18800
C1550       C  0.48721415  0.99904821  0.62601092    -0.10300
C1551       C  0.48646143  0.99822018  0.64773311    -0.11200
C1552       C  0.50335818  0.99042409  0.65888833     0.20400
C1553       C  0.52098604  0.98339197  0.64819904    -0.13200
C1554       C  0.52173883  0.98421910  0.62647405    -0.11500
C1555       C  0.50274914  0.98994456  0.68127143     0.01300
C1556       C  0.50256059  0.98987424  0.70001660    -0.31500
C1557       C  0.50564275  0.99298560  0.59293393     0.02700
C1558       C  0.50611859  0.99351018  0.57418412    -0.33200
H1559       H  0.47406437  0.00513875  0.61756775     0.13800
H1560       H  0.47276060  0.00372221  0.65581951     0.13600
H1561       H  0.53415541  0.97735395  0.65665028     0.13400
H1562       H  0.53546023  0.97876756  0.61839409     0.12500
C1563       C  0.63646186  0.99469552  0.74247499     0.18800
C1564       C  0.62712393  0.98175064  0.75736279    -0.10300
C1565       C  0.60549023  0.98090992  0.75920757    -0.11200
C1566       C  0.59307072  0.99301335  0.74617219     0.20400
C1567       C  0.60239685  0.00597832  0.73128381    -0.13200
C1568       C  0.62404444  0.00681988  0.72943841    -0.11500
C1569       C  0.57078818  0.99199374  0.74790612     0.01300
C1570       C  0.55209373  0.99126944  0.74879058    -0.31500
C1571       C  0.65875909  0.99559475  0.74076174     0.02700
C1572       C  0.67747518  0.99607704  0.74001814    -0.33200
H1573       H  0.63656715  0.97232235  0.76754375     0.13800
H1574       H  0.59845795  0.97081580  0.77075808     0.13600
H1575       H  0.59294937  0.01538843  0.72110852     0.13400
H1576       H  0.63107868  0.01690059  0.71788874     0.12500
C1577       C  0.30879022  0.94749794  0.94486799     0.18800
C1578       C  0.29942960  0.93199115  0.93285925    -0.10300
C1579       C  0.31165694  0.91870311  0.92083060    -0.11200
C1580       C  0.33329587  0.92086969  0.92077129     0.20400
C1581       C  0.34267281  0.93638440  0.93277131    -0.13200
C1582       C  0.33043567  0.94968100  0.94480953    -0.11500
C1583       C  0.34583331  0.90728072  0.90828142     0.01300
C1584       C  0.35631049  0.89605324  0.89760798    -0.31500
C1585       C  0.29614701  0.96098028  0.95737040     0.02700
C1586       C  0.28513201  0.97181959  0.96790642    -0.33200
H1587       H  0.28269760  0.93016385  0.93282224     0.13800
H1588       H  0.30425958  0.90677037  0.91158769     0.13600
H1589       H  0.35939703  0.93819536  0.93280860     0.13400
H1590       H  0.33782367  0.96160940  0.95406427     0.12500
C1591       C  0.43316580  0.81624464  0.91556048     0.18800
C1592       C  0.42593355  0.79696633  0.92272973    -0.10300
C1593       C  0.43801090  0.78519580  0.93636336    -0.11200
C1594       C  0.45735103  0.79267279  0.94293720     0.20400
C1595       C  0.46463555  0.81187473  0.93565543    -0.13200
C1596       C  0.45256758  0.82363310  0.92202862    -0.11500
C1597       C  0.46969645  0.78069004  0.95715084     0.01300
C1598       C  0.48013400  0.77047800  0.96881531    -0.31500
C1599       C  0.42026691  0.82897683  0.90252622     0.02700
C1600       C  0.40907265  0.84059035  0.89308828    -0.33200
H1601       H  0.41088869  0.79115489  0.91797057     0.13800
H1602       H  0.43222331  0.77036898  0.94188111     0.13600
H1603       H  0.47956186  0.81781149  0.94061997     0.13400
H1604       H  0.45825806  0.83858940  0.91672046     0.12500
C1605       C  0.43470070  0.91436739  0.81882596     0.18800
C1606       C  0.44093833  0.93378963  0.82639783    -0.10300
C1607       C  0.45310878  0.94700449  0.81405922    -0.11200
C1608       C  0.45912245  0.94090674  0.79403650     0.20400
C1609       C  0.45285432  0.92149725  0.78642000    -0.13200
C1610       C  0.44066204  0.90826177  0.79877759    -0.11500
C1611       C  0.47166077  0.95459536  0.78136127     0.01300
C1612       C  0.48210020  0.96618276  0.77083317    -0.31500
C1613       C  0.42184740  0.90106394  0.83158925     0.02700
C1614       C  0.41048274  0.89149210  0.84312651    -0.33200
H1615       H  0.43634353  0.93873955  0.84182808     0.13800
H1616       H  0.45780334  0.96196944  0.82011647     0.13600
H1617       H  0.45736528  0.91661866  0.77094548     0.13400
H1618       H  0.43585759  0.89334101  0.79270053     0.12500
C1619       C  0.66859251  0.74463763  0.24853254     0.18800
C1620       C  0.65759928  0.73485065  0.26465454    -0.10300
C1621       C  0.63591346  0.73377025  0.26406675    -0.11200
C1622       C  0.62512562  0.74245715  0.24734460     0.20400
C1623       C  0.63612149  0.75225232  0.23122970    -0.13200
C1624       C  0.65780358  0.75333172  0.23181767    -0.11500
C1625       C  0.60279986  0.74146569  0.24678691     0.01300
C1626       C  0.58408978  0.74095447  0.24637573    -0.31500
C1627       C  0.69092003  0.74554886  0.24901017     0.02700
C1628       C  0.70963188  0.74598931  0.24913984    -0.33200
H1629       H  0.66578113  0.72804413  0.27763513     0.13800
H1630       H  0.62757505  0.72618188  0.27662106     0.13600
H1631       H  0.62794303  0.75904379  0.21823564     0.13400
H1632       H  0.66614499  0.76090417  0.21924850     0.12500
C1633       C  0.49911416  0.57730796  0.25066096     0.18800
C1634       C  0.51730159  0.58729042  0.24390114    -0.10300
C1635       C  0.51815773  0.60896838  0.24284392    -0.11200
C1636       C  0.50082713  0.62079192  0.24853298     0.20400
C1637       C  0.48263794  0.61081043  0.25530889    -0.13200
C1638       C  0.48178155  0.58912232  0.25636685    -0.11500
C1639       C  0.50172341  0.64312862  0.24750259     0.01300
C1640       C  0.50238890  0.66184200  0.24684631    -0.31500
C1641       C  0.49827293  0.55497408  0.25154687     0.02700
C1642       C  0.49816220  0.53625293  0.25180251    -0.33200
H1643       H  0.53078804  0.57832171  0.23943002     0.13800
H1644       H  0.53231283  0.61649913  0.23759367     0.13600
H1645       H  0.46914542  0.61978299  0.25976065     0.13400
H1646       H  0.46762328  0.58157987  0.26159833     0.12500
C1647       C  0.50150716  0.74741839  0.08142653     0.18800
C1648       C  0.51792649  0.73708385  0.09115309    -0.10300
C1649       C  0.51847567  0.73552207  0.11282723    -0.11200
C1650       C  0.50260179  0.74427609  0.12488450     0.20400
C1651       C  0.48619383  0.75462760  0.11515891    -0.13200
C1652       C  0.48564534  0.75618919  0.09348216    -0.11500
C1653       C  0.50320875  0.74278517  0.14720734     0.01300
C1654       C  0.50366529  0.74191134  0.16592311    -0.31500
C1655       C  0.50087223  0.74879750  0.05910066     0.02700
C1656       C  0.50073482  0.74931818  0.04037052    -0.33200
H1657       H  0.53026394  0.73021921  0.08198996     0.13800
H1658       H  0.53125147  0.72750697  0.12016969     0.13600
H1659       H  0.47385307  0.76147709  0.12431830     0.13400
H1660       H  0.47286416  0.76419099  0.08613584     0.12500
C1661       C  0.51231759  0.90608973  0.24062082     0.18800
C1662       C  0.51779720  0.89401760  0.22336068    -0.10300
C1663       C  0.51659946  0.87234230  0.22448233    -0.11200
C1664       C  0.50990224  0.86264772  0.24285802     0.20400
C1665       C  0.50456463  0.87473085  0.26014405    -0.13200
C1666       C  0.50576263  0.89638452  0.25902412    -0.11500
C1667       C  0.50836751  0.84034766  0.24395295     0.01300
C1668       C  0.50715083  0.82166590  0.24475054    -0.31500
C1669       C  0.51292216  0.92841024  0.23939663     0.02700
C1670       C  0.51260468  0.94712096  0.23895467    -0.33200
H1671       H  0.52284628  0.90134069  0.20904811     0.13800
H1672       H  0.52078079  0.86316585  0.21101795     0.13600
H1673       H  0.49938017  0.86742399  0.27443050     0.13400
H1674       H  0.50144718  0.90556260  0.27245960     0.12500
C1675       C  0.33678229  0.81914623  0.81768288     0.18800
C1676       C  0.34521571  0.80397736  0.80456965    -0.10300
C1677       C  0.33213968  0.79182798  0.79218040    -0.11200
C1678       C  0.31059202  0.79479793  0.79286510     0.20400
C1679       C  0.30220321  0.81004980  0.80588457    -0.13200
C1680       C  0.31525394  0.82217907  0.81825011    -0.11500
C1681       C  0.29704175  0.78213760  0.78039009     0.01300
C1682       C  0.28550648  0.77159821  0.77008259    -0.31500
C1683       C  0.34998665  0.83151016  0.83080888     0.02700
C1684       C  0.35951328  0.84251711  0.84256669    -0.33200
H1685       H  0.36182619  0.80148779  0.80399988     0.13800
H1686       H  0.33880425  0.78008058  0.78215816     0.13600
H1687       H  0.28558034  0.81249829  0.80654414     0.13400
H1688       H  0.30855468  0.83385410  0.82832871     0.12500
C1689       C  0.00329639  0.75004964  0.57677566     0.18800
C1690       C  0.01834109  0.73755027  0.58616652    -0.10300
C1691       C  0.01991689  0.73682522  0.60781786    -0.11200
C1692       C  0.00645800  0.74860081  0.62020286     0.20400
C1693       C  0.99143635  0.76115517  0.61081720    -0.13200
C1694       C  0.98985988  0.76187939  0.58914574    -0.11500
C1695       C  0.00792227  0.74763783  0.64250997     0.01300
C1696       C  0.00878781  0.74679620  0.66121116    -0.31500
C1697       C  0.00166014  0.75055471  0.55447792     0.02700
C1698       C  0.00092618  0.75029420  0.53576550    -0.33200
H1699       H  0.02880544  0.72833099  0.57675407     0.13800
H1700       H  0.03157110  0.72704949  0.61489212     0.13600
H1701       H  0.98093589  0.77030610  0.62023204     0.13400
H1702       H  0.97816133  0.77159234  0.58205705     0.12500
C1703       C  0.17222410  0.75148759  0.74915473     0.18800
C1704       C  0.16228060  0.75515235  0.73019620    -0.10300
C1705       C  0.14065906  0.75369222  0.72887003    -0.11200
C1706       C  0.12885535  0.74853706  0.74648562     0.20400
C1707       C  0.13878273  0.74496396  0.76548206    -0.13200
C1708       C  0.16042324  0.74642431  0.76680933    -0.11500
C1709       C  0.10659101  0.74699417  0.74504258     0.01300
C1710       C  0.08793134  0.74602016  0.74379749    -0.31500
C1711       C  0.19453917  0.75232009  0.75026361     0.02700
C1712       C  0.21326009  0.75227721  0.75041790    -0.33200
H1713       H  0.17124322  0.75900262  0.71643178     0.13800
H1714       H  0.13315784  0.75651214  0.71410842     0.13600
H1715       H  0.12981946  0.74099212  0.77921152     0.13400
H1716       H  0.16794570  0.74348546  0.78153229     0.12500
C1717       C  0.25661562  0.48965931  0.58159241     0.18800
C1718       C  0.26240648  0.47231551  0.59334306    -0.10300
C1719       C  0.26253637  0.47339279  0.61506019    -0.11200
C1720       C  0.25687799  0.49182010  0.62512688     0.20400
C1721       C  0.25103390  0.50913679  0.61336889    -0.13200
C1722       C  0.25090341  0.50805975  0.59166286    -0.11500
C1723       C  0.25708820  0.49298585  0.64748126     0.01300
C1724       C  0.25722605  0.49394109  0.66620186    -0.31500
C1725       C  0.25669973  0.48868094  0.55923468     0.02700
C1726       C  0.25682390  0.48832370  0.54049976    -0.33200
H1727       H  0.26686021  0.45801684  0.58573180     0.13800
H1728       H  0.26707382  0.45990172  0.62398177     0.13600
H1729       H  0.24662000  0.52346257  0.62097443     0.13400
H1730       H  0.24640594  0.52157484  0.58273861     0.12500
C1731       C  0.25937356  0.66023109  0.74837312     0.18800
C1732       C  0.24392570  0.65054179  0.73654209    -0.10300
C1733       C  0.24289670  0.62887203  0.73553742    -0.11200
C1734       C  0.25732413  0.61680712  0.74635257     0.20400
C1735       C  0.27275180  0.62650502  0.75819546    -0.13200
C1736       C  0.27378030  0.64816567  0.75919969    -0.11500
C1737       C  0.25638382  0.59450423  0.74532586     0.01300
C1738       C  0.25608485  0.57579596  0.74488642    -0.31500
C1739       C  0.26046995  0.68252380  0.74930248     0.02700
C1740       C  0.26109104  0.70121873  0.74964235    -0.33200
H1741       H  0.23271629  0.65972667  0.72809705     0.13800
H1742       H  0.23090406  0.62154602  0.72633818     0.13600
H1743       H  0.28398523  0.61732605  0.76662319     0.13400
H1744       H  0.28579373  0.65549053  0.76837942     0.12500
C1745       C  0.25908936  0.57875718  0.49293059     0.18800
C1746       C  0.26991490  0.59057792  0.47811974    -0.10300
C1747       C  0.26939345  0.61226448  0.47900771    -0.11200
C1748       C  0.25804161  0.62221706  0.49470555     0.20400
C1749       C  0.24733893  0.61039071  0.50959920    -0.13200
C1750       C  0.24786151  0.58871044  0.50871171    -0.11500
C1751       C  0.25717500  0.64453047  0.49535352     0.01300
C1752       C  0.25646653  0.66322776  0.49557324    -0.31500
C1753       C  0.25928364  0.55644708  0.49187315     0.02700
C1754       C  0.25898593  0.53774701  0.49139946    -0.33200
H1755       H  0.27865246  0.58304511  0.46585479     0.13800
H1756       H  0.27772831  0.62125571  0.46741696     0.13600
H1757       H  0.23851762  0.61791640  0.52180518     0.13400
H1758       H  0.23944303  0.57972060  0.52024508     0.12500
C1759       C  0.26066477  0.74787488  0.65891544     0.18800
C1760       C  0.24733882  0.73337776  0.64968504    -0.10300
C1761       C  0.24599053  0.73216117  0.62804389    -0.11200
C1762       C  0.25796037  0.74544447  0.61553838     0.20400
C1763       C  0.27138674  0.75985742  0.62476874    -0.13200
C1764       C  0.27273542  0.76107568  0.64641773    -0.11500
C1765       C  0.25640218  0.74438942  0.59326579     0.01300
C1766       C  0.25538811  0.74376529  0.57457853    -0.31500
C1767       C  0.26176469  0.74925987  0.68118705     0.02700
C1768       C  0.26211544  0.74995338  0.69988749    -0.33200
H1769       H  0.23794636  0.72308730  0.65921247     0.13800
H1770       H  0.23557870  0.72094226  0.62107568     0.13600
H1771       H  0.28073318  0.77018602  0.61524254     0.13400
H1772       H  0.28309423  0.77232598  0.65339084     0.12500
C1773       C  0.13412456  0.74445024  0.49044272     0.18800
C1774       C  0.12209120  0.74785401  0.50830760    -0.10300
C1775       C  0.10045601  0.74904815  0.50687390    -0.11200
C1776       C  0.09072306  0.74686621  0.48756815     0.20400
C1777       C  0.10275018  0.74343884  0.46970380    -0.13200
C1778       C  0.12439147  0.74224347  0.47113762    -0.11500
C1779       C  0.06841702  0.74787335  0.48619378     0.01300
C1780       C  0.04969674  0.74828674  0.48570811    -0.31500
C1781       C  0.15642871  0.74341351  0.49188802     0.02700
C1782       C  0.17512455  0.74283244  0.49293248    -0.33200
H1783       H  0.12942303  0.74959819  0.52331104     0.13800
H1784       H  0.09132342  0.75164818  0.52080700     0.13600
H1785       H  0.09540992  0.74167348  0.45470463     0.13400
H1786       H  0.13352547  0.73961971  0.45720904     0.12500
C1787       C  0.50626996  0.87200703  0.49770490     0.18800
C1788       C  0.52357637  0.86224121  0.50643215    -0.10300
C1789       C  0.52447655  0.84056570  0.50749034    -0.11200
C1790       C  0.50807348  0.82851161  0.49983857     0.20400
C1791       C  0.49073652  0.83827125  0.49114257    -0.13200
C1792       C  0.48983561  0.85995822  0.49008380    -0.11500
C1793       C  0.50907601  0.80616992  0.50075213     0.01300
C1794       C  0.50956215  0.78744390  0.50109094    -0.31500
C1795       C  0.50547937  0.89434739  0.49652623     0.02700
C1796       C  0.50526717  0.91306980  0.49572184    -0.33200
H1797       H  0.53638095  0.87137901  0.51237463     0.13800
H1798       H  0.53797326  0.83321042  0.51423163     0.13600
H1799       H  0.47796547  0.82912902  0.48515630     0.13400
H1800       H  0.47637047  0.86731476  0.48329796     0.12500
C1801       C  0.57856880  0.66436108  0.56986790     0.18800
C1802       C  0.56155870  0.67467976  0.57870576    -0.10300
C1803       C  0.54940021  0.68794196  0.56658002    -0.11200
C1804       C  0.55416984  0.69102424  0.54552365     0.20400
C1805       C  0.57110367  0.68060564  0.53664600    -0.13200
C1806       C  0.58326929  0.66733911  0.54877672    -0.11500
C1807       C  0.54171754  0.70484516  0.53307022     0.01300
C1808       C  0.53115490  0.71620989  0.52257357    -0.31500
C1809       C  0.59173964  0.65158538  0.58268048     0.02700
C1810       C  0.60339212  0.64226116  0.59398172    -0.33200
H1811       H  0.55782433  0.67263638  0.59501399     0.13800
H1812       H  0.53635537  0.69588338  0.57365230     0.13600
H1813       H  0.57496976  0.68283109  0.52039001     0.13400
H1814       H  0.59644851  0.65957640  0.54176783     0.12500
C1815       C  0.50533746  0.74017408  0.36702788     0.18800
C1816       C  0.51733192  0.72489034  0.37673593    -0.10300
C1817       C  0.51845639  0.72404338  0.39843652    -0.11200
C1818       C  0.50759435  0.73848201  0.41054727     0.20400
C1819       C  0.49556092  0.75372640  0.40084235    -0.13200
C1820       C  0.49443775  0.75457314  0.37915025    -0.11500
C1821       C  0.50877157  0.73774320  0.43289271     0.01300
C1822       C  0.50929380  0.73765201  0.45162878    -0.31500
C1823       C  0.50433644  0.74114321  0.34466750     0.02700
C1824       C  0.50384405  0.74175027  0.32592608    -0.33200
H1825       H  0.52583577  0.71367063  0.36753596     0.13800
H1826       H  0.52779999  0.71218138  0.40575355     0.13600
H1827       H  0.48708368  0.76496809  0.41004060     0.13400
H1828       H  0.48511745  0.76646332  0.37183998     0.12500
C1829       C  0.37585172  0.74265041  0.49701966     0.18800
C1830       C  0.38509607  0.73546393  0.51532200    -0.10300
C1831       C  0.40671464  0.73403399  0.51666820    -0.11200
C1832       C  0.41919109  0.73977543  0.49970785     0.20400
C1833       C  0.40994907  0.74699603  0.48141689    -0.13200
C1834       C  0.38833125  0.74842501  0.48007056    -0.11500
C1835       C  0.44145394  0.73844676  0.50104833     0.01300
C1836       C  0.46015587  0.73793534  0.50150308    -0.31500
C1837       C  0.35358318  0.74384752  0.49560959     0.02700
C1838       C  0.33488612  0.74432167  0.49486685    -0.33200
H1839       H  0.37559415  0.73093450  0.52852033     0.13800
H1840       H  0.41368484  0.72846352  0.53089570     0.13600
H1841       H  0.41944871  0.75151093  0.46821734     0.13400
H1842       H  0.38136261  0.75398119  0.46583692     0.12500
C1843       C  0.08394485  0.56639141  0.17168685     0.18800
C1844       C  0.07860979  0.57273327  0.19183822    -0.10300
C1845       C  0.06534203  0.56048117  0.20407568    -0.11200
C1846       C  0.05730982  0.54184831  0.19621059     0.20400
C1847       C  0.06283711  0.53540352  0.17615509    -0.13200
C1848       C  0.07609713  0.54764524  0.16392641    -0.11500
C1849       C  0.04318859  0.52948760  0.20855012     0.01300
C1850       C  0.03133813  0.51906730  0.21878253    -0.31500
C1851       C  0.09643970  0.57963376  0.15853717     0.02700
C1852       C  0.10544364  0.59125067  0.14681902    -0.33200
H1853       H  0.08445629  0.58725582  0.19796083     0.13800
H1854       H  0.06117731  0.56563574  0.21955888     0.13600
H1855       H  0.05672524  0.52103992  0.16989914     0.13400
H1856       H  0.07998866  0.54264376  0.14832299     0.12500
C1857       C  0.38356454  0.74251946  0.24317452     0.18800
C1858       C  0.37407793  0.72991576  0.22821555    -0.10300
C1859       C  0.35242023  0.72873203  0.22713375    -0.11200
C1860       C  0.34014588  0.74015228  0.24100488     0.20400
C1861       C  0.34962755  0.75282591  0.25590749    -0.13200
C1862       C  0.37128747  0.75400940  0.25698999    -0.11500
C1863       C  0.31785588  0.73878107  0.24006802     0.01300
C1864       C  0.29916326  0.73785450  0.23973053    -0.31500
C1865       C  0.40586380  0.74343123  0.24447197     0.02700
C1866       C  0.42456545  0.74367326  0.24530666    -0.33200
H1867       H  0.38341351  0.72095243  0.21746218     0.13800
H1868       H  0.34526385  0.71888626  0.21555967     0.13600
H1869       H  0.34028580  0.76172313  0.26671725     0.13400
H1870       H  0.37844514  0.76379077  0.26862286     0.12500
C1871       C  0.25464227  0.73982259  0.37386047     0.18800
C1872       C  0.23957712  0.72732489  0.36438271    -0.10300
C1873       C  0.23834049  0.72640575  0.34271302    -0.11200
C1874       C  0.25216457  0.73797920  0.33041736     0.20400
C1875       C  0.26728774  0.75041603  0.33988720    -0.13200
C1876       C  0.26852450  0.75133625  0.36156229    -0.11500
C1877       C  0.25084466  0.73714650  0.30811584     0.01300
C1878       C  0.25016747  0.73673435  0.28940815    -0.31500
C1879       C  0.25566907  0.74095884  0.39617436     0.02700
C1880       C  0.25602331  0.74174351  0.41488999    -0.33200
H1881       H  0.22876100  0.71836020  0.37373744     0.13800
H1882       H  0.22659631  0.71672578  0.33555762     0.13600
H1883       H  0.27806566  0.75941676  0.33052878     0.13400
H1884       H  0.28023057  0.76105324  0.36871558     0.12500
C1885       C  0.24985395  0.86917610  0.24141053     0.18800
C1886       C  0.25945937  0.85869497  0.22492117    -0.10300
C1887       C  0.25827108  0.83704952  0.22369104    -0.11200
C1888       C  0.24744719  0.82578672  0.23893550     0.20400
C1889       C  0.23772950  0.83627761  0.25535397    -0.13200
C1890       C  0.23891721  0.85792532  0.25658565    -0.11500
C1891       C  0.24695017  0.80346139  0.23816405     0.01300
C1892       C  0.24730914  0.78475463  0.23825345    -0.31500
C1893       C  0.25125531  0.89144009  0.24274179     0.02700
C1894       C  0.25240337  0.91010700  0.24351359    -0.33200
H1895       H  0.26794431  0.86724063  0.21309151     0.13800
H1896       H  0.26591729  0.82909899  0.21097886     0.13600
H1897       H  0.22939009  0.82771471  0.26728144     0.13400
H1898       H  0.23142078  0.86586209  0.26938895     0.12500
C1899       C  0.18067408  0.66264218  0.17060863     0.18800
C1900       C  0.19243882  0.67880401  0.16186225    -0.10300
C1901       C  0.20515541  0.69110745  0.17442435    -0.11200
C1902       C  0.20619821  0.68735736  0.19583716     0.20400
C1903       C  0.19458785  0.67106757  0.20458864    -0.13200
C1904       C  0.18184782  0.65874503  0.19200581    -0.11500
C1905       C  0.21883564  0.70052298  0.20878731     0.01300
C1906       C  0.22925094  0.71200138  0.21931377    -0.31500
C1907       C  0.16691982  0.65064716  0.15765556     0.02700
C1908       C  0.15505080  0.64181760  0.14617290    -0.33200
H1909       H  0.19161244  0.68203070  0.14536253     0.13800
H1910       H  0.21402258  0.70366605  0.16747144     0.13600
H1911       H  0.19523502  0.66802733  0.22112647     0.13400
H1912       H  0.17277484  0.64634949  0.19897536     0.12500
C1913       C  0.38621856  0.49748220  0.99906747     0.18800
C1914       C  0.37654961  0.51200327  0.01207089    -0.10300
C1915       C  0.35487690  0.51318339  0.01290313    -0.11200
C1916       C  0.34278309  0.49984706  0.00072978     0.20400
C1917       C  0.35245155  0.48530273  0.98775937    -0.13200
C1918       C  0.37411677  0.48412303  0.98692712    -0.11500
C1919       C  0.32048287  0.50106004  0.00144750     0.01300
C1920       C  0.30177680  0.50151752  0.00153093    -0.31500
C1921       C  0.40852570  0.49634920  0.99815139     0.02700
C1922       C  0.42722663  0.49566597  0.99754962    -0.33200
H1923       H  0.38575481  0.52241041  0.02152750     0.13800
H1924       H  0.34756886  0.52448159  0.02298775     0.13600
H1925       H  0.34324824  0.47491084  0.97828273     0.13400
H1926       H  0.38141740  0.47283883  0.97682129     0.12500
C1927       C  0.25328097  0.50166216  0.91070445     0.18800
C1928       C  0.23530222  0.49687775  0.89949726    -0.10300
C1929       C  0.23597763  0.49599422  0.87778435    -0.11200
C1930       C  0.25464235  0.49987919  0.86716951     0.20400
C1931       C  0.27259809  0.50477126  0.87837002    -0.13200
C1932       C  0.27192200  0.50565352  0.90008337    -0.11500
C1933       C  0.25538040  0.49878329  0.84482587     0.01300
C1934       C  0.25594123  0.49794109  0.82610975    -0.31500
C1935       C  0.25271132  0.50206807  0.93307769     0.02700
C1936       C  0.25252824  0.50193008  0.95181786    -0.33200
H1937       H  0.22080844  0.49372695  0.90754209     0.13800
H1938       H  0.22199590  0.49221188  0.86929239     0.13600
H1939       H  0.28711207  0.50781877  0.87033230     0.13400
H1940       H  0.28592808  0.50933155  0.90858036     0.12500
C1941       C  0.20616866  0.54464269  0.04769779     0.18800
C1942       C  0.18571913  0.54881866  0.04172568    -0.10300
C1943       C  0.17277522  0.56061042  0.05459745    -0.11200
C1944       C  0.18018124  0.56829356  0.07354147     0.20400
C1945       C  0.20061756  0.56407598  0.07955325    -0.13200
C1946       C  0.21357345  0.55226964  0.06666973    -0.11500
C1947       C  0.16691780  0.58096331  0.08639617     0.01300
C1948       C  0.15521672  0.59216017  0.09582851    -0.31500
C1949       C  0.21949661  0.53254030  0.03437273     0.02700
C1950       C  0.23052756  0.52226194  0.02322224    -0.33200
H1951       H  0.17980650  0.54301578  0.02710407     0.13800
H1952       H  0.15704095  0.56383445  0.04973150     0.13600
H1953       H  0.20655863  0.56999775  0.09411810     0.13400
H1954       H  0.22935442  0.54914464  0.07145971     0.12500
C1955       C  0.25659049  0.36737379  0.99935762     0.18800
C1956       C  0.25646265  0.37767946  0.01852166    -0.10300
C1957       C  0.25544006  0.39936085  0.01919432    -0.11200
C1958       C  0.25452686  0.41081594  0.00070201     0.20400
C1959       C  0.25472072  0.40050747  0.98155078    -0.13200
C1960       C  0.25574187  0.37884217  0.98087934    -0.11500
C1961       C  0.25350679  0.43312215  0.00129467     0.01300
C1962       C  0.25296233  0.45182232  0.00127711    -0.31500
C1963       C  0.25741292  0.34505756  0.99864070     0.02700
C1964       C  0.25787871  0.32635794  0.99806965    -0.33200
H1965       H  0.25711038  0.36896856  0.03290572     0.13800
H1966       H  0.25534240  0.40716739  0.03408248     0.13600
H1967       H  0.25406397  0.40921176  0.96715939     0.13400
H1968       H  0.25582817  0.37104107  0.96597519     0.12500
C1969       C  0.00854101  0.87401815  0.99018200     0.18800
C1970       C  0.99049226  0.86229410  0.98694608    -0.10300
C1971       C  0.99100340  0.84066899  0.98884235    -0.11200
C1972       C  0.00957676  0.83068267  0.99400666     0.20400
C1973       C  0.02760732  0.84241009  0.99728951    -0.13200
C1974       C  0.02709581  0.86403050  0.99539274    -0.11500
C1975       C  0.01018494  0.80840497  0.99552525     0.01300
C1976       C  0.01033825  0.78970672  0.99609536    -0.31500
C1977       C  0.00802450  0.89628384  0.98838738     0.02700
C1978       C  0.00784530  0.91497233  0.98740785    -0.33200
H1979       H  0.97603710  0.86986343  0.98294849     0.13800
H1980       H  0.97699887  0.83176150  0.98622861     0.13600
H1981       H  0.04206979  0.83483990  0.00124733     0.13400
H1982       H  0.04111652  0.87293308  0.99796780     0.12500
C1983       C  0.00863469  0.74342379  0.86207925     0.18800
C1984       C  0.00340226  0.76089037  0.87390653    -0.10300
C1985       C  0.00420230  0.76001878  0.89559784    -0.11200
C1986       C  0.01025333  0.74168063  0.90556404     0.20400
C1987       C  0.01559546  0.72423872  0.89374150    -0.13200
C1988       C  0.01479525  0.72511130  0.87203949    -0.11500
C1989       C  0.01067921  0.74074013  0.92789726     0.01300
C1990       C  0.01053682  0.74040904  0.94662023    -0.31500
C1991       C  0.00767132  0.74428100  0.83975565     0.02700
C1992       C  0.00711312  0.74482252  0.82104113    -0.33200
H1993       H  0.99864889  0.77513880  0.86636965     0.13800
H1994       H  0.00002803  0.77359208  0.90459010     0.13600
H1995       H  0.02028364  0.70998182  0.90128477     0.13400
H1996       H  0.01890608  0.71152327  0.86304678     0.12500
C1997       C  0.07674765  0.66851430  0.06795697     0.18800
C1998       C  0.05809209  0.67698448  0.07527931    -0.10300
C1999       C  0.04616546  0.68962161  0.06231921    -0.11200
C2000       C  0.05284353  0.69384424  0.04198676     0.20400
C2001       C  0.07139164  0.68520377  0.03460577    -0.13200
C2002       C  0.08331201  0.67257126  0.04756056    -0.11500
C2003       C  0.04079389  0.70718970  0.02878629     0.01300
C2004       C  0.03064798  0.71839503  0.01780485    -0.31500
C2005       C  0.08931117  0.65591277  0.08140301     0.02700
C2006       C  0.10014685  0.64543687  0.09244119    -0.33200
H2007       H  0.05285277  0.67393529  0.09100786     0.13800
H2008       H  0.03183343  0.69619097  0.06817819     0.13600
H2009       H  0.07668805  0.68833247  0.01891026     0.13400
H2010       H  0.09770141  0.66608319  0.04172599     0.12500
C2011       C  0.05581436  0.19189688  0.54281055     0.18800
C2012       C  0.04796454  0.18028156  0.55954598    -0.10300
C2013       C  0.06123983  0.16774496  0.57125939    -0.11200
C2014       C  0.08242662  0.16672640  0.56628207     0.20400
C2015       C  0.09021073  0.17815767  0.54940156    -0.13200
C2016       C  0.07694744  0.19068302  0.53769852    -0.11500
C2017       C  0.09634751  0.15477774  0.57903554     0.01300
C2018       C  0.10834417  0.14592543  0.59032180    -0.31500
C2019       C  0.04233463  0.20527144  0.53103800     0.02700
C2020       C  0.03140377  0.21658869  0.52092071    -0.33200
H2021       H  0.03166034  0.18107439  0.56365468     0.13800
H2022       H  0.05504525  0.15906354  0.58433064     0.13600
H2023       H  0.10656798  0.17758970  0.54545051     0.13400
H2024       H  0.08320556  0.19957605  0.52479753     0.12500
C2025       C  0.38560001  0.99521081  0.49639041     0.18800
C2026       C  0.37404367  0.97739691  0.50134614    -0.10300
C2027       C  0.35236521  0.97834858  0.50245431    -0.11200
C2028       C  0.34213531  0.99712369  0.49863388     0.20400
C2029       C  0.35369256  0.01492946  0.49366855    -0.13200
C2030       C  0.37536732  0.01397799  0.49255971    -0.11500
C2031       C  0.31979968  0.99800627  0.49943166     0.01300
C2032       C  0.30107654  0.99829955  0.49951209    -0.31500
C2033       C  0.40792868  0.99429902  0.49539724     0.02700
C2034       C  0.42664353  0.99378296  0.49481037    -0.33200
H2035       H  0.38177859  0.96280406  0.50434863     0.13800
H2036       H  0.34359331  0.96446594  0.50623689     0.13600
H2037       H  0.34595388  0.02951434  0.49061491     0.13400
H2038       H  0.38413688  0.02785465  0.48872397     0.12500
C2039       C  0.25470751  0.99353604  0.36448843     0.18800
C2040       C  0.25710383  0.01279248  0.37430510    -0.10300
C2041       C  0.25653905  0.01407016  0.39599601    -0.11200
C2042       C  0.25356901  0.99609389  0.40793237     0.20400
C2043       C  0.25118410  0.97685197  0.39810638    -0.13200
C2044       C  0.25174751  0.97557392  0.37643234    -0.11500
C2045       C  0.25308428  0.99729497  0.43024165     0.01300
C2046       C  0.25282537  0.99772021  0.44895445    -0.31500
C2047       C  0.25519705  0.99220428  0.34218616     0.02700
C2048       C  0.25548662  0.99120724  0.32349332    -0.33200
H2049       H  0.25939401  0.02677428  0.36521260     0.13800
H2050       H  0.25842226  0.02901725  0.40343717     0.13600
H2051       H  0.24890276  0.96284989  0.40719919     0.13400
H2052       H  0.24987219  0.96061463  0.36899956     0.12500
C2053       C  0.25383949  0.86401585  0.49687559     0.18800
C2054       C  0.24120638  0.87409012  0.51148110    -0.10300
C2055       C  0.24061405  0.89579219  0.51217367    -0.11200
C2056       C  0.25265692  0.90754176  0.49826423     0.20400
C2057       C  0.26536073  0.89747075  0.48371699    -0.13200
C2058       C  0.26595276  0.87576936  0.48302414    -0.11500
C2059       C  0.25194081  0.92989110  0.49882257     0.01300
C2060       C  0.25167098  0.94861553  0.49887113    -0.31500
C2061       C  0.25425271  0.84166022  0.49602314     0.02700
C2062       C  0.25442492  0.82293695  0.49540405    -0.33200
H2063       H  0.23177602  0.86517394  0.52228019     0.13800
H2064       H  0.23074575  0.90339495  0.52349330     0.13600
H2065       H  0.27475208  0.90638618  0.47288968     0.13400
H2066       H  0.27578400  0.86817135  0.47167332     0.12500
C2067       C  0.20459167  0.04414666  0.54129896     0.18800
C2068       C  0.19313444  0.03602251  0.55802212    -0.10300
C2069       C  0.18059445  0.04904976  0.57009869    -0.11200
C2070       C  0.17939992  0.07028495  0.56551423     0.20400
C2071       C  0.19067762  0.07836833  0.54864433    -0.13200
C2072       C  0.20321870  0.06534120  0.53656648    -0.11500
C2073       C  0.16739970  0.08391835  0.57865028     0.01300
C2074       C  0.15847974  0.09567177  0.59023014    -0.31500
C2075       C  0.21798635  0.03083420  0.52923091     0.02700
C2076       C  0.22930439  0.01979364  0.51913439    -0.33200
H2077       H  0.19405736  0.01967428  0.56184872     0.13800
H2078       H  0.17203946  0.04261673  0.58315119     0.13600
H2079       H  0.18997585  0.09476631  0.54498873     0.13400
H2080       H  0.21198777  0.07181993  0.52369488     0.12500
C2081       C  0.62770024  0.49196196  0.99328368     0.18800
C2082       C  0.63985293  0.49852747  0.01003522    -0.10300
C2083       C  0.66150208  0.49757474  0.00873539    -0.11200
C2084       C  0.67109365  0.49004360  0.99068537     0.20400
C2085       C  0.65895030  0.48347128  0.97392796    -0.13200
C2086       C  0.63729034  0.48442466  0.97522762    -0.11500
C2087       C  0.69337238  0.48914122  0.98942500     0.01300
C2088       C  0.71206885  0.48878322  0.98903824    -0.31500
C2089       C  0.60541960  0.49297437  0.99460440     0.02700
C2090       C  0.58674063  0.49372550  0.99550358    -0.33200
H2091       H  0.63260376  0.50438095  0.02406490     0.13800
H2092       H  0.67075358  0.50270849  0.02177938     0.13600
H2093       H  0.66620985  0.47763448  0.95989716     0.13400
H2094       H  0.62803938  0.47930953  0.96218428     0.12500
C2095       C  0.75632573  0.48996662  0.12334694     0.18800
C2096       C  0.73844126  0.49271820  0.11136847    -0.10300
C2097       C  0.73966317  0.49181405  0.08967571    -0.11200
C2098       C  0.75877382  0.48813785  0.07986165     0.20400
C2099       C  0.77664677  0.48537602  0.09184289    -0.13200
C2100       C  0.77542627  0.48628090  0.11352944    -0.11500
C2101       C  0.76006204  0.48747413  0.05752603     0.01300
C2102       C  0.76076720  0.48743927  0.03879865    -0.31500
C2103       C  0.75511589  0.49087912  0.14567875     0.02700
C2104       C  0.75439921  0.49147439  0.16439928    -0.33200
H2105       H  0.72359022  0.49557551  0.11878462     0.13800
H2106       H  0.72574987  0.49401858  0.08057079     0.13600
H2107       H  0.79151472  0.48256950  0.08442406     0.13400
H2108       H  0.78935408  0.48412965  0.12262968     0.12500
C2109       C  0.00185806  0.49261487  0.61531817     0.18800
C2110       C  0.00592039  0.47399622  0.62578391    -0.10300
C2111       C  0.00571549  0.47341886  0.64750557    -0.11200
C2112       C  0.00144049  0.49145347  0.65885512     0.20400
C2113       C  0.99728120  0.51005469  0.64839349    -0.13200
C2114       C  0.99748523  0.51063237  0.62666763    -0.11500
C2115       C  0.00162108  0.49094568  0.68120286     0.01300
C2116       C  0.00206961  0.49076961  0.69991768    -0.31500
C2117       C  0.00228347  0.49323485  0.59296650     0.02700
C2118       C  0.00266919  0.49359797  0.57424064    -0.33200
H2119       H  0.00931178  0.45997301  0.61716497     0.13800
H2120       H  0.00897335  0.45896112  0.65543902     0.13600
H2121       H  0.99397880  0.52409650  0.65701830     0.13400
H2122       H  0.99431466  0.52510941  0.61873500     0.12500
C2123       C  0.00465211  0.62469653  0.74400670     0.18800
C2124       C  0.01085955  0.61262046  0.72701264    -0.10300
C2125       C  0.01008150  0.59096819  0.72828269    -0.11200
C2126       C  0.00309306  0.58130740  0.74654742     0.20400
C2127       C  0.99682983  0.59337911  0.76352735    -0.13200
C2128       C  0.99760773  0.61503992  0.76225839    -0.11500
C2129       C  0.00256477  0.55903126  0.74788087     0.01300
C2130       C  0.00252904  0.54034644  0.74856290    -0.31500
C2131       C  0.00560619  0.64696790  0.74274794     0.02700
C2132       C  0.00641083  0.66563572  0.74187120    -0.33200
H2133       H  0.01633173  0.61992774  0.71284133     0.13800
H2134       H  0.01497872  0.58176940  0.71506689     0.13600
H2135       H  0.99141943  0.58606062  0.77772520     0.13400
H2136       H  0.99277641  0.62423889  0.77549184     0.12500
C2137       C  0.13631230  0.49294637  0.74789506     0.18800
C2138       C  0.12579087  0.49423879  0.76696040    -0.10300
C2139       C  0.10408864  0.49337117  0.76758007    -0.11200
C2140       C  0.09282725  0.49118954  0.74913861     0.20400
C2141       C  0.10336135  0.48981442  0.73009439    -0.13200
C2142       C  0.12504997  0.49068163  0.72947369    -0.11500
C2143       C  0.07048708  0.49067410  0.74966292     0.01300
C2144       C  0.05177120  0.49063042  0.74963421    -0.31500
C2145       C  0.15863043  0.49395829  0.74721372     0.02700
C2146       C  0.17733080  0.49466308  0.74669204    -0.33200
H2147       H  0.13434513  0.49597144  0.78130073     0.13800
H2148       H  0.09610483  0.49447744  0.78238936     0.13600
H2149       H  0.09480838  0.48815387  0.71573500     0.13400
H2150       H  0.13302323  0.48964740  0.71465276     0.12500
C2151       C  0.93408511  0.31950523  0.91962540     0.18800
C2152       C  0.95506670  0.31677087  0.91451151    -0.10300
C2153       C  0.96767593  0.30439010  0.92704860    -0.11200
C2154       C  0.95934475  0.29470725  0.94473997     0.20400
C2155       C  0.93836941  0.29745669  0.94984545    -0.13200
C2156       C  0.92576700  0.30982992  0.93731611    -0.11500
C2157       C  0.97225515  0.28192307  0.95763721     0.01300
C2158       C  0.98287848  0.27111632  0.96854278    -0.31500
C2159       C  0.92108637  0.33221997  0.90676044     0.02700
C2160       C  0.91012285  0.34287789  0.89605742    -0.33200
H2161       H  0.96165089  0.32418679  0.90086766     0.13800
H2162       H  0.98387611  0.30236227  0.92295764     0.13600
H2163       H  0.93177104  0.29003552  0.96348831     0.13400
H2164       H  0.90956446  0.31184714  0.94140862     0.12500
C2165       C  0.80596313  0.44401251  0.94219479     0.18800
C2166       C  0.82681404  0.44025955  0.94694069    -0.10300
C2167       C  0.83905937  0.42823436  0.93361547    -0.11200
C2168       C  0.83056396  0.41988298  0.91543192     0.20400
C2169       C  0.80969739  0.42361208  0.91066770    -0.13200
C2170       C  0.79743335  0.43565983  0.92401229    -0.11500
C2171       C  0.84325110  0.40710749  0.90209629     0.01300
C2172       C  0.85482049  0.39593609  0.89246444    -0.31500
C2173       C  0.79340180  0.45648233  0.95593241     0.02700
C2174       C  0.78290696  0.46705927  0.96732577    -0.33200
H2175       H  0.83359462  0.44660809  0.96094184     0.13800
H2176       H  0.85514234  0.42538263  0.93752901     0.13600
H2177       H  0.80291130  0.41716779  0.89671717     0.13400
H2178       H  0.78132614  0.43844052  0.92017515     0.12500
C2179       C  0.95490097  0.44690438  0.79409578     0.18800
C2180       C  0.94109479  0.43305923  0.78455632    -0.10300
C2181       C  0.92767350  0.42085750  0.79666725    -0.11200
C2182       C  0.92797206  0.42248211  0.81837255     0.20400
C2183       C  0.94172333  0.43638986  0.82788948    -0.13200
C2184       C  0.95513731  0.44857835  0.81578941    -0.11500
C2185       C  0.91493513  0.40926899  0.83099174     0.01300
C2186       C  0.90552848  0.39763044  0.84235459    -0.31500
C2187       C  0.96881448  0.45935558  0.78164668     0.02700
C2188       C  0.98028271  0.46984215  0.77107433    -0.33200
H2189       H  0.94078475  0.43162882  0.76779601     0.13800
H2190       H  0.91721942  0.41005632  0.78913611     0.13600
H2191       H  0.94220037  0.43767221  0.84466415     0.13400
H2192       H  0.96574554  0.45921361  0.82333944     0.12500
C2193       C  0.80839147  0.29818538  0.79171199     0.18800
C2194       C  0.81768297  0.29036990  0.80970093    -0.10300
C2195       C  0.82986039  0.30332066  0.82210969    -0.11200
C2196       C  0.83282124  0.32417886  0.81662595     0.20400
C2197       C  0.82360648  0.33201195  0.79857902    -0.13200
C2198       C  0.81140019  0.31903255  0.78614267    -0.11500
C2199       C  0.84543590  0.33729791  0.82958447     0.01300
C2200       C  0.85653569  0.34671463  0.84132982    -0.31500
C2201       C  0.79565951  0.28480102  0.77915806     0.02700
C2202       C  0.78490649  0.27332735  0.76901839    -0.33200
H2203       H  0.81547204  0.27428514  0.81415676     0.13800
H2204       H  0.83695160  0.29707911  0.83599955     0.13600
H2205       H  0.82583004  0.34809931  0.79415572     0.13400
H2206       H  0.80429056  0.32523737  0.77225822     0.12500
C2207       C  0.75936325  0.57877314  0.99075403     0.18800
C2208       C  0.75625478  0.58878876  0.00982368    -0.10300
C2209       C  0.75466979  0.61041916  0.01059137    -0.11200
C2210       C  0.75616842  0.62212859  0.99228624     0.20400
C2211       C  0.75914066  0.61210339  0.97319871    -0.13200
C2212       C  0.76072665  0.59046915  0.97243119    -0.11500
C2213       C  0.75510471  0.64442376  0.99313041     0.01300
C2214       C  0.75474756  0.66312208  0.99373011    -0.31500
C2215       C  0.76093966  0.55651031  0.99000903     0.02700
C2216       C  0.76166015  0.53782116  0.98977998    -0.33200
H2217       H  0.75510437  0.57988785  0.02408048     0.13800
H2218       H  0.75238823  0.61800427  0.02543054     0.13600
H2219       H  0.76033661  0.62100739  0.95894903     0.13400
H2220       H  0.76305497  0.58288436  0.95760204     0.12500
C2221       C  0.59155046  0.74748435  0.99213257     0.18800
C2222       C  0.60316269  0.74420914  0.97398197    -0.10300
C2223       C  0.62481103  0.74315590  0.97492759    -0.11200
C2224       C  0.63491338  0.74535095  0.99402595     0.20400
C2225       C  0.62330400  0.74864779  0.01217481    -0.13200
C2226       C  0.60165567  0.74970034  0.01122794    -0.11500
C2227       C  0.65717473  0.74431995  0.99494714     0.01300
C2228       C  0.67585110  0.74366525  0.99534777    -0.31500
C2229       C  0.56927709  0.74833332  0.99124181     0.02700
C2230       C  0.55058938  0.74868538  0.99096424    -0.33200
H2231       H  0.59549421  0.74244011  0.95914796     0.13800
H2232       H  0.63365749  0.74062279  0.96080245     0.13600
H2233       H  0.63096887  0.75038512  0.02701052     0.13400
H2234       H  0.59280496  0.75220151  0.02536095     0.12500
C2235       C  0.91943401  0.74191502  0.99608761     0.18800
C2236       C  0.90924003  0.75806305  0.98576413    -0.10300
C2237       C  0.88755052  0.75857039  0.98531640    -0.11200
C2238       C  0.87599766  0.74292313  0.99519012     0.20400
C2239       C  0.88619607  0.72684176  0.00560431    -0.13200
C2240       C  0.90787930  0.72633475  0.00605134    -0.11500
C2241       C  0.85370240  0.74327250  0.99457876     0.01300
C2242       C  0.83501067  0.74330549  0.99426692    -0.31500
C2243       C  0.94172634  0.74124342  0.99627158     0.02700
C2244       C  0.96041207  0.74088332  0.99610782    -0.33200
H2245       H  0.91804865  0.77018812  0.97801340     0.13800
H2246       H  0.87981001  0.77108092  0.97723927     0.13600
H2247       H  0.87739326  0.71467937  0.01330333     0.13400
H2248       H  0.91561934  0.71378729  0.01407615     0.12500
C2249       C  0.75944139  0.74695768  0.15916377     0.18800
C2250       C  0.74051217  0.74971944  0.14890976    -0.10300
C2251       C  0.73959838  0.74831438  0.12724769    -0.11200
C2252       C  0.75760908  0.74411007  0.11572953     0.20400
C2253       C  0.77654797  0.74136679  0.12597835    -0.13200
C2254       C  0.77746192  0.74277179  0.14764888    -0.11500
C2255       C  0.75669800  0.74284123  0.09341400     0.01300
C2256       C  0.75611125  0.74221878  0.07469796    -0.31500
C2257       C  0.76022119  0.74796143  0.18149624     0.02700
C2258       C  0.76021535  0.74812574  0.20023008    -0.33200
H2259       H  0.72646681  0.75289061  0.15765900     0.13800
H2260       H  0.72488301  0.75049429  0.11949706     0.13600
H2261       H  0.79058227  0.73814044  0.11722749     0.13400
H2262       H  0.79216355  0.74053826  0.15541013     0.12500
C2263       C  0.50870267  0.37422141  0.99873619     0.18800
C2264       C  0.51379442  0.36439209  0.01746135    -0.10300
C2265       C  0.51511160  0.34273374  0.01840343    -0.11200
C2266       C  0.51136151  0.33080156  0.00061951     0.20400
C2267       C  0.50626538  0.34063596  0.98190149    -0.13200
C2268       C  0.50494846  0.36228818  0.98095810    -0.11500
C2269       C  0.51251881  0.30849092  0.00156149     0.01300
C2270       C  0.51297616  0.28977722  0.00190946    -0.31500
C2271       C  0.50748563  0.39652388  0.99775587     0.02700
C2272       C  0.50681861  0.41522523  0.99718578    -0.33200
H2273       H  0.51674692  0.37345481  0.03129625     0.13800
H2274       H  0.51902692  0.33530827  0.03296893     0.13600
H2275       H  0.50329646  0.33157187  0.96806254     0.13400
H2276       H  0.50101969  0.36970790  0.96639665     0.12500
C2277       C  0.42240388  0.24192868  0.00127870     0.18800
C2278       C  0.41028903  0.23021947  0.01515420    -0.10300
C2279       C  0.38861946  0.23133902  0.01438996    -0.11200
C2280       C  0.37898653  0.24417393  0.99975084     0.20400
C2281       C  0.39110923  0.25585845  0.98586647    -0.13200
C2282       C  0.41276769  0.25473886  0.98663061    -0.11500
C2283       C  0.35669221  0.24529964  0.99894724     0.01300
C2284       C  0.33800382  0.24600687  0.99834984    -0.31500
C2285       C  0.44469790  0.24092404  0.00205924     0.02700
C2286       C  0.46339990  0.24058942  0.00228474    -0.33200
H2287       H  0.41757842  0.22026603  0.02654468     0.13800
H2288       H  0.37939695  0.22222832  0.02518434     0.13600
H2289       H  0.38382971  0.26581854  0.97447568     0.13400
H2290       H  0.42198858  0.26385752  0.97583457     0.12500
C2291       C  0.57987996  0.16935283  0.07572891     0.18800
C2292       C  0.55913893  0.16425235  0.07156085    -0.10300
C2293       C  0.54714340  0.17719963  0.05893250    -0.11200
C2294       C  0.55583003  0.19529689  0.05037310     0.20400
C2295       C  0.57648629  0.20050250  0.05475047    -0.13200
C2296       C  0.58846836  0.18757220  0.06736891     0.09300
C2297       C  0.54372100  0.20831063  0.03681417     0.01300
C2298       C  0.53361768  0.21909788  0.02533237    -0.31500
C2299       C  0.59269908  0.15545939  0.08765261     0.02700
C2300       C  0.60424467  0.14357617  0.09632774    -0.33200
H2301       H  0.55234362  0.15016360  0.07782699     0.13800
H2302       H  0.53119812  0.17299063  0.05566198     0.13600
H2303       H  0.58339514  0.21443417  0.04822573     0.13400
H2304       H  0.60451041  0.19163388  0.07037391     0.12500
C2305       C  0.37802481  0.49818658  0.74546863     0.18800
C2306       C  0.38978686  0.48779326  0.76046309    -0.10300
C2307       C  0.41148503  0.48832218  0.75943558    -0.11200
C2308       C  0.42152291  0.49924310  0.74341554     0.20400
C2309       C  0.40976330  0.50966157  0.72844384    -0.13200
C2310       C  0.38806773  0.50913247  0.72947238    -0.11500
C2311       C  0.44385492  0.49960645  0.74231853     0.01300
C2312       C  0.46256826  0.49941025  0.74182890    -0.31500
C2313       C  0.35568371  0.49756110  0.74637599     0.02700
C2314       C  0.33696074  0.49717877  0.74670222    -0.33200
H2315       H  0.38220074  0.47926924  0.77289359     0.13800
H2316       H  0.42042245  0.48019794  0.77108329     0.13600
H2317       H  0.41734804  0.51813644  0.71598466     0.13400
H2318       H  0.37912961  0.51721472  0.71778586     0.12500
C2319       C  0.50899927  0.49581515  0.87532236     0.18800
C2320       C  0.51055825  0.47736959  0.86390631    -0.10300
C2321       C  0.51177909  0.47802111  0.84218699    -0.11200
C2322       C  0.51147057  0.49712570  0.83174295     0.20400
C2323       C  0.50994927  0.51557126  0.84315841    -0.13200
C2324       C  0.50872785  0.51491902  0.86487662    -0.11500
C2325       C  0.51236776  0.49776329  0.80934558     0.01300
C2326       C  0.51257975  0.49798974  0.79058517    -0.31500
C2327       C  0.50782002  0.49516489  0.89771435     0.02700
C2328       C  0.50714879  0.49480945  0.91647227    -0.33200
H2329       H  0.51081182  0.46250334  0.87178458     0.13800
H2330       H  0.51290419  0.46365185  0.83354960     0.13600
H2331       H  0.50965080  0.53043128  0.83527804     0.13400
H2332       H  0.50755622  0.52929142  0.87351155     0.12500
C2333       C  0.58116231  0.56625552  0.66622208     0.18800
C2334       C  0.58913856  0.54771239  0.67428925    -0.10300
C2335       C  0.57702786  0.53545071  0.68767992    -0.11200
C2336       C  0.55689051  0.54168465  0.69311425     0.20400
C2337       C  0.54885719  0.56011082  0.68487841    -0.13200
C2338       C  0.56095603  0.57235895  0.67149870    -0.11500
C2339       C  0.54450373  0.52931964  0.70721911     0.01300
C2340       C  0.53385627  0.51906080  0.71886072    -0.31500
C2341       C  0.59401742  0.57954625  0.65343445     0.02700
C2342       C  0.60514861  0.59142954  0.64401076    -0.33200
H2343       H  0.60477299  0.54287545  0.67043519     0.13800
H2344       H  0.58341606  0.52123332  0.69392349     0.13600
H2345       H  0.53331302  0.56509468  0.68894115     0.13400
H2346       H  0.55464427  0.58672068  0.66546898     0.12500
C2347       C  0.50233579  0.24645335  0.58240375     0.18800
C2348       C  0.51563284  0.23221578  0.59197919    -0.10300
C2349       C  0.51716866  0.23161559  0.61364969    -0.11200
C2350       C  0.50542079  0.24525432  0.62586361     0.20400
C2351       C  0.49210756  0.25947883  0.61628574    -0.13200
C2352       C  0.49057090  0.26007992  0.59461137    -0.11500
C2353       C  0.50693999  0.24461470  0.64818986     0.01300
C2354       C  0.50788326  0.24417571  0.66690776    -0.31500
C2355       C  0.50092968  0.24713188  0.56008138     0.02700
C2356       C  0.50035473  0.24736656  0.54135429    -0.33200
H2357       H  0.52481384  0.22161880  0.58270337     0.13800
H2358       H  0.52750147  0.22053871  0.62086878     0.13600
H2359       H  0.48293336  0.27009027  0.62556454     0.13400
H2360       H  0.48025194  0.27116303  0.58738636     0.12500
C2361       C  0.67284972  0.24817795  0.74999459     0.18800
C2362       C  0.66235908  0.23101177  0.75841626    -0.10300
C2363       C  0.64069556  0.22990393  0.75751324    -0.11200
C2364       C  0.62945874  0.24594893  0.74816321     0.20400
C2365       C  0.63995696  0.26310089  0.73973806    -0.13200
C2366       C  0.66160996  0.26420895  0.74064232    -0.11500
C2367       C  0.60717310  0.24492388  0.74735359     0.01300
C2368       C  0.58848435  0.24434226  0.74687423    -0.31500
C2369       C  0.69514039  0.24917410  0.75058300     0.02700
C2370       C  0.71383347  0.24969833  0.75046933    -0.33200
H2371       H  0.67091517  0.21849566  0.76561944     0.13800
H2372       H  0.63272533  0.21657858  0.76408474     0.13600
H2373       H  0.63141003  0.27559784  0.73248274     0.13400
H2374       H  0.66957903  0.27751266  0.73402195     0.12500
C2375       C  0.50928736  0.36429243  0.74434448     0.18800
C2376       C  0.50946616  0.37611269  0.76258612    -0.10300
C2377       C  0.50990094  0.39777811  0.76147019    -0.11200
C2378       C  0.51016691  0.40772952  0.74210688     0.20400
C2379       C  0.50999211  0.39592142  0.72384414    -0.13200
C2380       C  0.50955667  0.37423532  0.72496175    -0.11500
C2381       C  0.51055534  0.43003154  0.74108199     0.01300
C2382       C  0.51076169  0.44873131  0.74087715    -0.31500
C2383       C  0.50891637  0.34199184  0.74553083     0.02700
C2384       C  0.50876514  0.32330228  0.74638896    -0.33200
H2385       H  0.50927665  0.36858249  0.77765787     0.13800
H2386       H  0.51002489  0.40676515  0.77568455     0.13600
H2387       H  0.51018754  0.40345996  0.70879147     0.13400
H2388       H  0.50943768  0.36524167  0.71075898     0.12500
C2389       C  0.51262665  0.23942094  0.91205018     0.18800
C2390       C  0.51947180  0.22247891  0.90024466    -0.10300
C2391       C  0.51853278  0.22317025  0.87850836    -0.11200
C2392       C  0.51073332  0.24080357  0.86845227     0.20400
C2393       C  0.50388089  0.25771558  0.88027515    -0.13200
C2394       C  0.50481900  0.25702573  0.90198548    -0.11500
C2395       C  0.50986198  0.24162940  0.84605186     0.01300
C2396       C  0.50931514  0.24238140  0.82730058    -0.31500
C2397       C  0.51346080  0.23881080  0.93444857     0.02700
C2398       C  0.51361047  0.23898699  0.95321180    -0.33200
H2399       H  0.52551812  0.20876911  0.90782448     0.13800
H2400       H  0.52389174  0.20999279  0.86956188     0.13600
H2401       H  0.49782833  0.27144356  0.87270946     0.13400
H2402       H  0.49945584  0.27021522  0.91092286     0.12500
C2403       C  0.50534160  0.12299974  0.74900993     0.18800
C2404       C  0.48793253  0.11286458  0.74082699    -0.10300
C2405       C  0.48644170  0.09121804  0.74172237    -0.11200
C2406       C  0.50234698  0.07961435  0.75082803     0.20400
C2407       C  0.51972266  0.08975873  0.75907895    -0.13200
C2408       C  0.52121461  0.11140545  0.75818407    -0.11500
C2409       C  0.50116366  0.05730170  0.75117490     0.01300
C2410       C  0.50096543  0.03859372  0.75087190    -0.31500
C2411       C  0.50684989  0.14527053  0.74806081     0.02700
C2412       C  0.50777446  0.16394955  0.74742478    -0.33200
H2413       H  0.47555765  0.12168512  0.73371479     0.13800
H2414       H  0.47297556  0.08353594  0.73522441     0.13600
H2415       H  0.53215277  0.08093259  0.76608595     0.13400
H2416       H  0.53473027  0.11907855  0.76457495     0.12500
C2417       C  0.25658376  0.24493951  0.87643883     0.18800
C2418       C  0.26664884  0.26007895  0.86439253    -0.10300
C2419       C  0.26552636  0.25929880  0.84272291    -0.11200
C2420       C  0.25432767  0.24338056  0.83302226     0.20400
C2421       C  0.24422290  0.22826540  0.84506555    -0.13200
C2422       C  0.24534496  0.22904538  0.86674058    -0.11500
C2423       C  0.25345237  0.24247614  0.81072908     0.01300
C2424       C  0.25337470  0.24209603  0.79202286    -0.31500
C2425       C  0.25773652  0.24572695  0.89872678     0.02700
C2426       C  0.25842710  0.24626274  0.91741908    -0.33200
H2427       H  0.27536469  0.27244122  0.87173956     0.13800
H2428       H  0.27341471  0.27104707  0.83354480     0.13600
H2429       H  0.23554143  0.21587652  0.83770909     0.13400
H2430       H  0.23749262  0.21727242  0.87592029     0.12500
C2431       C  0.18528681  0.17280025  0.66981836     0.18800
C2432       C  0.18631241  0.16819174  0.69107276    -0.10300
C2433       C  0.19844395  0.18046154  0.70423702    -0.11200
C2434       C  0.20959920  0.19739516  0.69620195     0.20400
C2435       C  0.20857705  0.20199622  0.67495174    -0.13200
C2436       C  0.19644914  0.18972982  0.66179131    -0.11500
C2437       C  0.22214697  0.20999733  0.70970144     0.01300
C2438       C  0.23282083  0.22058523  0.72082767    -0.31500
C2439       C  0.17276957  0.16020368  0.65627369     0.02700
C2440       C  0.16221030  0.14963080  0.64501528    -0.33200
H2441       H  0.17774553  0.15513996  0.69745005     0.13800
H2442       H  0.19913257  0.17675249  0.72063815     0.13600
H2443       H  0.21715166  0.21504428  0.66856951     0.13400
H2444       H  0.19577170  0.19343846  0.64538772     0.12500
C2445       C  0.25730873  0.37545226  0.74537444     0.18800
C2446       C  0.25101918  0.36386657  0.76274054    -0.10300
C2447       C  0.25070509  0.34218964  0.76181145    -0.11200
C2448       C  0.25665930  0.33202667  0.74350821     0.20400
C2449       C  0.26302414  0.34360883  0.72616756    -0.13200
C2450       C  0.26333976  0.36528753  0.72709683    -0.11500
C2451       C  0.25622306  0.30973823  0.74256765     0.01300
C2452       C  0.25589477  0.29105014  0.74226247    -0.31500
C2453       C  0.25746892  0.39774810  0.74624723     0.02700
C2454       C  0.25755040  0.41643867  0.74670619    -0.33200
H2455       H  0.24633142  0.37157658  0.77694660     0.13800
H2456       H  0.24579238  0.33337038  0.77531472     0.13600
H2457       H  0.26769022  0.33589574  0.71195300     0.13400
H2458       H  0.26823345  0.37410906  0.71358487     0.12500
C2459       C  0.38824126  0.24265573  0.74631407     0.18800
C2460       C  0.37658779  0.26066698  0.74965045    -0.10300
C2461       C  0.35491860  0.25985007  0.74881898    -0.11200
C2462       C  0.34482700  0.24102791  0.74463470     0.20400
C2463       C  0.35647310  0.22300481  0.74133455    -0.13200
C2464       C  0.37814824  0.22382272  0.74216718    -0.11500
C2465       C  0.32254265  0.24027618  0.74379073     0.01300
C2466       C  0.30385422  0.24030198  0.74339553    -0.31500
C2467       C  0.41053440  0.24349204  0.74703322     0.02700
C2468       C  0.42922817  0.24389972  0.74740844    -0.33200
H2469       H  0.38423856  0.27530476  0.75286170     0.13800
H2470       H  0.34604430  0.27386883  0.75141635     0.13600
H2471       H  0.34881987  0.20837829  0.73811286     0.13400
H2472       H  0.38702640  0.20980456  0.73955863     0.12500
C2473       C  0.01039386  0.99724297  0.86641349     0.18800
C2474       C  0.99230732  0.99568118  0.85451287    -0.10300
C2475       C  0.99349980  0.99669656  0.83283034    -0.11200
C2476       C  0.01276332  0.99929105  0.82293428     0.20400
C2477       C  0.03085967  0.00083480  0.83482737    -0.13200
C2478       C  0.02966665  0.99981897  0.85652025    -0.11500
C2479       C  0.01389369  0.00011781  0.80059968     0.01300
C2480       C  0.01403751  0.00028385  0.78186676    -0.31500
C2481       C  0.00917624  0.99631882  0.88874505     0.02700
C2482       C  0.00845015  0.99576509  0.90746705    -0.33200
H2483       H  0.97734097  0.99369288  0.86197503     0.13800
H2484       H  0.97939773  0.99543490  0.82377577     0.13600
H2485       H  0.04582432  0.00279258  0.82735585     0.13400
H2486       H  0.04376992  0.00104928  0.86557891     0.12500
C2487       C  0.87858291  0.99754480  0.73977750     0.18800
C2488       C  0.89087016  0.98560507  0.75310370    -0.10300
C2489       C  0.91254025  0.98667682  0.75170515    -0.11200
C2490       C  0.92204865  0.99968927  0.73697500     0.20400
C2491       C  0.90976642  0.01169300  0.72370637    -0.13200
C2492       C  0.88809627  0.01062221  0.72510535    -0.11500
C2493       C  0.94436619  0.00050333  0.73536667     0.01300
C2494       C  0.96307708  0.00058061  0.73435328    -0.31500
C2495       C  0.85625129  0.99636573  0.74106276     0.02700
C2496       C  0.83752293  0.99576813  0.74169183    -0.33200
H2497       H  0.88371248  0.97544742  0.76451198     0.13800
H2498       H  0.92187209  0.97731413  0.76204478     0.13600
H2499       H  0.91692604  0.02179951  0.71225557     0.13400
H2500       H  0.87876904  0.01993576  0.71472255     0.12500
C2501       C  0.00935106  0.86595134  0.73824257     0.18800
C2502       C  0.99098220  0.87724241  0.73574844    -0.10300
C2503       C  0.99170673  0.89888575  0.73412063    -0.11200
C2504       C  0.01080285  0.90932923  0.73495513     0.20400
C2505       C  0.02917447  0.89803319  0.73740041    -0.13200
C2506       C  0.02845074  0.87639041  0.73902894    -0.11500
C2507       C  0.01149550  0.93162627  0.73364412     0.01300
C2508       C  0.01179302  0.95032705  0.73305123    -0.31500
C2509       C  0.00864014  0.84367269  0.73981863     0.02700
C2510       C  0.00827936  0.82498483  0.74075492    -0.33200
H2511       H  0.97613603  0.86933071  0.73508094     0.13800
H2512       H  0.97740042  0.90746897  0.73227253     0.13600
H2513       H  0.04401552  0.90594617  0.73810336     0.13400
H2514       H  0.04274902  0.86781411  0.74091313     0.12500
C2515       C  0.05718158  0.04454713  0.68535868     0.18800
C2516       C  0.07540117  0.03675899  0.67632230    -0.10300
C2517       C  0.08794184  0.04961537  0.66393246    -0.11200
C2518       C  0.08233006  0.07033167  0.66047911     0.20400
C2519       C  0.06403950  0.07807438  0.66940178    -0.13200
C2520       C  0.05150297  0.06522181  0.68178666    -0.11500
C2521       C  0.09577393  0.08386986  0.64859222     0.01300
C2522       C  0.10758533  0.09559264  0.63982329    -0.31500
C2523       C  0.04447726  0.03147891  0.69852563     0.02700
C2524       C  0.03381298  0.02078394  0.70975839    -0.33200
H2525       H  0.07999224  0.02081799  0.67898845     0.13800
H2526       H  0.10210382  0.04347543  0.65723579     0.13600
H2527       H  0.05958851  0.09408918  0.66696702     0.13400
H2528       H  0.03748574  0.07144433  0.68870761     0.12500
C2529       C  0.75587371  0.87535703  0.73864935     0.18800
C2530       C  0.77442424  0.86406941  0.73890724    -0.10300
C2531       C  0.77390289  0.84236103  0.73870736    -0.11200
C2532       C  0.75483150  0.83184498  0.73823790     0.20400
C2533       C  0.73628761  0.84313249  0.73787931    -0.13200
C2534       C  0.73680910  0.86483840  0.73807962    -0.11500
C2535       C  0.75429172  0.80950655  0.73839248     0.01300
C2536       C  0.75402218  0.79080079  0.73883073    -0.31500
C2537       C  0.75638162  0.89769561  0.73913801     0.02700
C2538       C  0.75670159  0.91640492  0.73962279    -0.33200
H2539       H  0.78925044  0.87203488  0.73934695     0.13800
H2540       H  0.78833819  0.83378912  0.73900712     0.13600
H2541       H  0.72146172  0.83516747  0.73753429     0.13400
H2542       H  0.72236900  0.87340628  0.73787547     0.12500
C2543       C  0.88728888  0.74364976  0.73938156     0.18800
C2544       C  0.87707220  0.72451007  0.73749152    -0.10300
C2545       C  0.85536971  0.72365266  0.73747411    -0.11200
C2546       C  0.84380937  0.74193832  0.73933943     0.20400
C2547       C  0.85402837  0.76107029  0.74119515    -0.13200
C2548       C  0.87571873  0.76192797  0.74121224    -0.11500
C2549       C  0.82149111  0.74113831  0.73943259     0.01300
C2550       C  0.80278746  0.74101376  0.73967147    -0.31500
C2551       C  0.90961198  0.74452000  0.73959045     0.02700
C2552       C  0.92831568  0.74507612  0.73988190    -0.33200
H2553       H  0.88587308  0.71027629  0.73607902     0.13800
H2554       H  0.84762352  0.70877784  0.73604177     0.13600
H2555       H  0.84522801  0.77530760  0.74265867     0.13400
H2556       H  0.88345505  0.77680405  0.74269443     0.12500
C2557       C  0.75418738  0.74210279  0.87374093     0.18800
C2558       C  0.73811179  0.73178690  0.86335911    -0.10300
C2559       C  0.73767169  0.73153528  0.84163070    -0.11200
C2560       C  0.75330930  0.74159788  0.83019780     0.20400
C2561       C  0.76940074  0.75187554  0.84058140    -0.13200
C2562       C  0.76984191  0.75212745  0.86230079    -0.11500
C2563       C  0.75287286  0.74143651  0.80784488     0.01300
C2564       C  0.75288996  0.74155539  0.78911818    -0.31500
C2565       C  0.75459617  0.74246419  0.89609865     0.02700
C2566       C  0.75491649  0.74278119  0.91482568    -0.33200
H2567       H  0.72592695  0.72397821  0.87205093     0.13800
H2568       H  0.72516023  0.72353640  0.83376186     0.13600
H2569       H  0.78157885  0.75970451  0.83189103     0.13400
H2570       H  0.78234181  0.76014279  0.87015851     0.12500
C2571       C  0.70834530  0.69584338  0.69455259     0.18800
C2572       C  0.71373900  0.67506499  0.69115530    -0.10300
C2573       C  0.70114570  0.66238904  0.67882751    -0.11200
C2574       C  0.68310617  0.67044075  0.66984775     0.20400
C2575       C  0.67776570  0.69123397  0.67318490    -0.13200
C2576       C  0.69035182  0.70390328  0.68550605    -0.11500
C2577       C  0.67001754  0.65738659  0.65731541     0.01300
C2578       C  0.65894308  0.64654396  0.64683660    -0.31500
C2579       C  0.72118182  0.70885869  0.70738404     0.02700
C2580       C  0.73188302  0.71977158  0.71817370    -0.33200
H2581       H  0.72761836  0.66867074  0.69806507     0.13800
H2582       H  0.70543119  0.64633866  0.67634606     0.13600
H2583       H  0.66385426  0.69762676  0.66630968     0.13400
H2584       H  0.68603405  0.71994857  0.68802066     0.12500
C2585       C  0.88775781  0.99513189  0.99147692     0.18800
C2586       C  0.87606572  0.97748119  0.98646694    -0.10300
C2587       C  0.85441353  0.97795071  0.98801649    -0.11200
C2588       C  0.84438272  0.99606658  0.99459805     0.20400
C2589       C  0.85607930  0.01368736  0.99969244    -0.13200
C2590       C  0.87773079  0.01321776  0.99814304    -0.11500
C2591       C  0.82209683  0.99665568  0.99574561     0.01300
C2592       C  0.80340291  0.99690176  0.99610040    -0.31500
C2593       C  0.91002076  0.99470935  0.98981910     0.02700
C2594       C  0.92869617  0.99457262  0.98873770    -0.33200
H2595       H  0.88367049  0.96341057  0.98132230     0.13800
H2596       H  0.84550556  0.96425532  0.98400866     0.13600
H2597       H  0.84847002  0.02778089  0.00476418     0.13400
H2598       H  0.88663438  0.02693976  0.00207897     0.12500
C2599       C  0.75521911  0.99703302  0.90539817     0.18800
C2600       C  0.74140285  0.00942315  0.89415980    -0.10300
C2601       C  0.74162727  0.00900332  0.87243172    -0.11200
C2602       C  0.75566708  0.99618957  0.86185572     0.20400
C2603       C  0.76954379  0.98386865  0.87309270    -0.13200
C2604       C  0.76931900  0.98428890  0.89481759    -0.11500
C2605       C  0.75583243  0.99567658  0.83950516     0.01300
C2606       C  0.75601756  0.99536955  0.82078088    -0.31500
C2607       C  0.75482830  0.99725332  0.92775574     0.02700
C2608       C  0.75459999  0.99717569  0.94648299    -0.33200
H2609       H  0.73044507  0.01933521  0.90218030     0.13800
H2610       H  0.73084840  0.01861345  0.86389596     0.13600
H2611       H  0.78048007  0.97392738  0.86507310     0.13400
H2612       H  0.78007688  0.97464927  0.90335400     0.12500
C2613       C  0.75467205  0.86369648  0.99782519     0.18800
C2614       C  0.77195554  0.87507934  0.99094003    -0.10300
C2615       C  0.77155583  0.89677186  0.99124945    -0.11200
C2616       C  0.75387403  0.90717964  0.99845013     0.20400
C2617       C  0.73667201  0.89580566  0.00556695    -0.13200
C2618       C  0.73707162  0.87409835  0.00525842    -0.11500
C2619       C  0.75330521  0.92949579  0.99811753     0.01300
C2620       C  0.75326915  0.94818165  0.99733461    -0.31500
C2621       C  0.75490229  0.84138032  0.99697632     0.02700
C2622       C  0.75509505  0.82269059  0.99616995    -0.33200
H2623       H  0.78565076  0.86719847  0.98518838     0.13800
H2624       H  0.78493981  0.90541734  0.98572189     0.13600
H2625       H  0.72292523  0.90369968  0.01117567     0.13400
H2626       H  0.72363859  0.86544967  0.01064258     0.12500
C2627       C  0.68318402  0.06707833  0.06671335     0.18800
C2628       C  0.69787692  0.05377674  0.07554188    -0.10300
C2629       C  0.71065332  0.04170843  0.06277156    -0.11200
C2630       C  0.70878996  0.04289305  0.04112240     0.20400
C2631       C  0.69407751  0.05617069  0.03230006    -0.13200
C2632       C  0.68130266  0.06823741  0.04506812    -0.11500
C2633       C  0.72185999  0.03039289  0.02799322     0.01300
C2634       C  0.73270127  0.01967479  0.01712579    -0.31500
C2635       C  0.67008655  0.07956050  0.07983259     0.02700
C2636       C  0.65912144  0.09004301  0.09080798    -0.33200
H2637       H  0.69945535  0.05274972  0.09225790     0.13800
H2638       H  0.72195361  0.03146749  0.06975787     0.13600
H2639       H  0.69248165  0.05718175  0.01557786     0.13400
H2640       H  0.66998513  0.07846188  0.03808019     0.12500
loop_ 
_geom_bond_atom_site_label_1 
_geom_bond_atom_site_label_2 
_geom_bond_distance 
_geom_bond_site_symmetry_2 
_ccdc_geom_bond_type 
C1            C2   1.536       .  S
C1            C7   1.535   1_545  S
C1            C5   1.536   1_554  S
C1         C2634   1.467       .  S
C2            H9   1.086       .  S
C2            C3   1.364   1_544  D
C3            C4   1.534       .  S
C3         C2592   1.439       .  S
C4            C8   1.534       .  S
C4            C6   1.535       .  S
C4           H10   1.112       .  S
C5           H11   1.086       .  S
C5            C6   1.364   1_545  D
C6         C2608   1.441       .  S
C7           H12   1.086       .  S
C7            C8   1.363   1_554  D
C8         C2620   1.440       .  S
C13          C14   1.536       .  S
C13          C19   1.536       .  S
C13          C17   1.535       .  S
C13        C2580   1.468       .  S
C14          H21   1.086       .  S
C14          C15   1.364       .  D
C15          C16   1.535       .  S
C15        C2536   1.441       .  S
C16          C20   1.535       .  S
C16          C18   1.534       .  S
C16          H22   1.112       .  S
C17          H23   1.087       .  S
C17          C18   1.364       .  D
C18        C2550   1.440       .  S
C19          H24   1.086       .  S
C19          C20   1.364       .  D
C20        C2564   1.441       .  S
C25          C26   1.536   1_545  S
C25          C31   1.537       .  S
C25          C29   1.538   1_455  S
C25        C2524   1.472       .  S
C26          H33   1.086       .  S
C26          C27   1.364       .  D
C27          C28   1.534   1_455  S
C27        C2508   1.441       .  S
C28          C32   1.534   1_655  S
C28          C30   1.534       .  S
C28          H34   1.112       .  S
C29          H35   1.086       .  S
C29          C30   1.365   1_545  D
C30        C2494   1.443   1_565  S
C31          H36   1.086       .  S
C31          C32   1.365   1_545  D
C32        C2480   1.441   1_565  S
C37          C38   1.536       .  S
C37          C43   1.536       .  S
C37          C41   1.536       .  S
C37        C2438   1.467       .  S
C38          H45   1.086       .  S
C38          C39   1.364       .  D
C39          C40   1.533       .  S
C39        C2466   1.439       .  S
C40          C44   1.533       .  S
C40          C42   1.533       .  S
C40          H46   1.112       .  S
C41          H47   1.086       .  S
C41          C42   1.364       .  D
C42        C2424   1.439       .  S
C43          H48   1.086       .  S
C43          C44   1.364       .  D
C44        C2452   1.439       .  S
Zn49         O53   1.963       .  S
Zn49         O54   2.016       .  S
Zn49         O58   2.019       .  S
Zn49         O65   2.011       .  S
Zn50         O53   1.963       .  S
Zn50         O55   2.015       .  S
Zn50         O57   2.016       .  S
Zn50         O61   2.019       .  S
Zn51         O53   1.964       .  S
Zn51         O56   2.022       .  S
Zn51         O59   2.016       .  S
Zn51         O62   2.012       .  S
Zn52         O53   1.968       .  S
Zn52         O60   2.022       .  S
Zn52         O63   2.032       .  S
Zn52         O64   2.020       .  S
O54          C66   1.272       .  A
O55          C67   1.272       .  A
O56          C68   1.272       .  A
O57          C66   1.272       .  A
O58          C68   1.272       .  A
O59          C67   1.272       .  A
O60          C69   1.273       .  A
O61          C70   1.272       .  A
O62          C69   1.271       .  A
O63          C70   1.273       .  A
O64          C71   1.272       .  A
O65          C71   1.271       .  A
C66        C2412   1.434       .  S
C67        C2368   1.433       .  S
C68        C2354   1.437       .  S
C69        C2384   1.434       .  S
C70        C2396   1.440       .  S
C71        C2468   1.433       .  S
C72          C73   1.535       .  S
C72          C78   1.538       .  S
C72          C76   1.537       .  S
C72        C2340   1.471       .  S
C73          H80   1.086       .  S
C73          C74   1.363       .  D
C74          C75   1.534       .  S
C74        C2382   1.440       .  S
C75          C79   1.535       .  S
C75          C77   1.534       .  S
C75          H81   1.112       .  S
C76          H82   1.086       .  S
C76          C77   1.364       .  D
C77        C2312   1.441       .  S
C78          H83   1.086       .  S
C78          C79   1.366       .  D
C79        C2326   1.444       .  S
C84          C85   1.537       .  S
C84          C90   1.538   1_554  S
C84          C88   1.536       .  S
C84        C2298   1.472       .  S
C85          H92   1.086       .  S
C85          C86   1.365       .  D
C86          C87   1.535   1_554  S
C86        C2270   1.442       .  S
C87          C91   1.535       .  S
C87          C89   1.534   1_556  S
C87          H93   1.112       .  S
C88          H94   1.086       .  S
C88          C89   1.363       .  D
C89        C2286   1.440       .  S
C90          H95   1.086       .  S
C90          C91   1.366       .  D
C91        C2398   1.445       .  S
Zn96        O100   1.962       .  S
Zn96        O101   2.019       .  S
Zn96        O105   2.020       .  S
Zn96        O112   2.010       .  S
Zn97        O100   1.962       .  S
Zn97        O102   2.017       .  S
Zn97        O104   2.017       .  S
Zn97        O108   2.015       .  S
Zn98        O100   1.960   1_554  S
Zn98        O103   2.013       .  S
Zn98        O106   2.011       .  S
Zn98        O109   2.013       .  S
Zn99        O100   1.966   1_554  S
Zn99        O107   2.024       .  S
Zn99        O110   2.021       .  S
Zn99        O111   2.017       .  S
O101        C113   1.272       .  A
O102        C114   1.272       .  A
O103        C115   1.271   1_554  A
O104        C113   1.272       .  A
O105        C115   1.272       .  A
O106        C114   1.271   1_554  A
O107        C116   1.272       .  A
O108        C117   1.272       .  A
O109        C116   1.271       .  A
O110        C117   1.272   1_554  A
O111        C118   1.272   1_554  A
O112        C118   1.271       .  A
C113       C2566   1.435       .  S
C114       C2242   1.433       .  S
C115       C2622   1.435       .  S
C116       C2256   1.436       .  S
C117       C2214   1.435       .  S
C118       C2228   1.433       .  S
C119        C120   1.531       .  S
C119        C125   1.531       .  S
C119        C123   1.531       .  S
C119       C2160   1.466       .  S
C120        H127   1.087       .  S
C120        C121   1.363       .  D
C121        C122   1.541       .  S
C121       C2186   1.442       .  S
C122        C126   1.540       .  S
C122        C124   1.542       .  S
C122        H128   1.111       .  S
C123        H129   1.087       .  S
C123        C124   1.364       .  D
C124       C2172   1.444       .  S
C125        H130   1.087       .  S
C125        C126   1.364       .  D
C126       C2200   1.442       .  S
C131        C132   1.536   1_655  S
C131        C137   1.535       .  S
C131        C135   1.536       .  S
C131       C2188   1.468       .  S
C132        H139   1.086       .  S
C132        C133   1.365       .  D
C133        C134   1.535       .  S
C133       C2144   1.441       .  S
C134        C138   1.534       .  S
C134        C136   1.534       .  S
C134        H140   1.112       .  S
C135        H141   1.086       .  S
C135        C136   1.364   1_655  D
C136       C2130   1.439       .  S
C137        H142   1.086       .  S
C137        C138   1.364   1_655  D
C138       C2116   1.440       .  S
C143        C144   1.538   1_556  S
C143        C149   1.537       .  S
C143        C147   1.536       .  S
C143       C2174   1.471       .  S
C144        H151   1.086       .  S
C144        C145   1.365       .  D
C145        C146   1.533       .  S
C145       C2102   1.442       .  S
C146        C150   1.533   1_554  S
C146        C148   1.533   1_554  S
C146        H152   1.112       .  S
C147        H153   1.086       .  S
C147        C148   1.364       .  D
C148       C2088   1.440       .  S
C149        H154   1.086       .  S
C149        C150   1.364       .  D
C150       C2216   1.440       .  S
C155        C156   1.536       .  S
C155        C161   1.538       .  S
C155        C159   1.538   1_545  S
C155       C2076   1.472       .  S
C156        H163   1.086       .  S
C156        C157   1.363   1_545  D
C157        C158   1.534       .  S
C157       C2046   1.440       .  S
C158        C162   1.534       .  S
C158        C160   1.534       .  S
C158        H164   1.112       .  S
C159        H165   1.086       .  S
C159        C160   1.365       .  D
C160       C2060   1.443       .  S
C161        H166   1.086       .  S
C161        C162   1.365   1_545  D
C162       C2032   1.442       .  S
C167        C168   1.533       .  S
C167        C173   1.533       .  S
C167        C171   1.532       .  S
C167       C2440   1.468       .  S
C168        H175   1.086       .  S
C168        C169   1.364       .  D
C169        C170   1.541       .  S
C169       C2018   1.444       .  S
C170        C174   1.541       .  S
C170        C172   1.540       .  S
C170        H176   1.111       .  S
C171        H177   1.087       .  S
C171        C172   1.364       .  D
C172       C2522   1.444       .  S
C173        H178   1.087       .  S
C173        C174   1.364       .  D
C174       C2074   1.445       .  S
C179        C180   1.536   1_554  S
C179        C185   1.535   1_455  S
C179        C183   1.537       .  S
C179       C2004   1.468       .  S
C180        H187   1.086       .  S
C180        C181   1.364       .  D
C181        C182   1.534   1_455  S
C181       C1990   1.440       .  S
C182        C186   1.533       .  S
C182        C184   1.533   1_655  S
C182        H188   1.112       .  S
C183        H189   1.086       .  S
C183        C184   1.365   1_554  D
C184       C1976   1.440       .  S
C185        H190   1.086       .  S
C185        C186   1.363   1_554  D
C186       C2244   1.438       .  S
C191        C192   1.536       .  S
C191        C197   1.537   1_554  S
C191        C195   1.537       .  S
C191       C1950   1.470       .  S
C192        H199   1.086       .  S
C192        C193   1.364       .  D
C193        C194   1.534   1_554  S
C193       C1962   1.441       .  S
C194        C198   1.535       .  S
C194        C196   1.534   1_556  S
C194        H200   1.112       .  S
C195        H201   1.086       .  S
C195        C196   1.364       .  D
C196       C1920   1.441       .  S
C197        H202   1.086       .  S
C197        C198   1.365       .  D
C198       C1936   1.442       .  S
C203        C204   1.537       .  S
C203        C209   1.537       .  S
C203        C207   1.537       .  S
C203       C1906   1.471       .  S
C204        H211   1.086       .  S
C204        C205   1.365       .  D
C205        C206   1.533       .  S
C205       C1864   1.441       .  S
C206        C210   1.534       .  S
C206        C208   1.533       .  S
C206        H212   1.112       .  S
C207        H213   1.086       .  S
C207        C208   1.364       .  D
C208       C1878   1.441       .  S
C209        H214   1.086       .  S
C209        C210   1.365       .  D
C210       C1892   1.441       .  S
C215        C216   1.533       .  S
C215        C221   1.531       .  S
C215        C219   1.532       .  S
C215       C2006   1.468       .  S
C216        H223   1.087       .  S
C216        C217   1.365       .  D
C217        C218   1.540       .  S
C217       C1908   1.444       .  S
C218        C222   1.540       .  S
C218        C220   1.541       .  S
C218        H224   1.111       .  S
C219        H225   1.087       .  S
C219        C220   1.363       .  D
C220       C1948   1.444       .  S
C221        H226   1.087       .  S
C221        C222   1.364       .  D
C222       C1852   1.443       .  S
C227        C228   1.537       .  S
C227        C233   1.539       .  S
C227        C231   1.537       .  S
C227       C1808   1.474       .  S
C228        H235   1.086       .  S
C228        C229   1.365       .  D
C229        C230   1.533       .  S
C229       C1836   1.441       .  S
C230        C234   1.534       .  S
C230        C232   1.534       .  S
C230        H236   1.112       .  S
C231        H237   1.086       .  S
C231        C232   1.365       .  D
C232       C1822   1.443       .  S
C233        H238   1.086       .  S
C233        C234   1.366       .  D
C234       C1794   1.444       .  S
Zn239       O243   1.969       .  S
Zn239       O244   2.024       .  S
Zn239       O248   2.023       .  S
Zn239       O255   2.024       .  S
Zn240       O243   1.965       .  S
Zn240       O245   2.024       .  S
Zn240       O247   2.020       .  S
Zn240       O251   2.022       .  S
Zn241       O243   1.964       .  S
Zn241       O246   2.016       .  S
Zn241       O249   2.021       .  S
Zn241       O252   2.020       .  S
Zn242       O243   1.963       .  S
Zn242       O250   2.016       .  S
Zn242       O253   2.013       .  S
Zn242       O254   2.012       .  S
O244        C256   1.273       .  A
O245        C257   1.273       .  A
O246        C258   1.272       .  A
O247        C256   1.272       .  A
O248        C258   1.273       .  A
O249        C257   1.272       .  A
O250        C259   1.271       .  A
O251        C260   1.272       .  A
O252        C259   1.272       .  A
O253        C260   1.271       .  A
O254        C261   1.271       .  A
O255        C261   1.272       .  A
C256       C2062   1.437       .  S
C257       C1782   1.438       .  S
C258       C1880   1.436       .  S
C259       C1752   1.435       .  S
C260       C1766   1.435       .  S
C261       C1838   1.436       .  S
Zn262       O266   1.967       .  S
Zn262       O267   2.022       .  S
Zn262       O271   2.022       .  S
Zn262       O278   2.024       .  S
Zn263       O266   1.963       .  S
Zn263       O268   2.019       .  S
Zn263       O270   2.015       .  S
Zn263       O274   2.020       .  S
Zn264       O266   1.964       .  S
Zn264       O269   2.012       .  S
Zn264       O272   2.018       .  S
Zn264       O275   2.015       .  S
Zn265       O266   1.963       .  S
Zn265       O273   2.013       .  S
Zn265       O276   2.019       .  S
Zn265       O277   2.018       .  S
O267        C279   1.273       .  A
O268        C280   1.272       .  A
O269        C281   1.271       .  A
O270        C279   1.272       .  A
O271        C281   1.272       .  A
O272        C280   1.272       .  A
O273        C282   1.271       .  A
O274        C283   1.272       .  A
O275        C282   1.272       .  A
O276        C283   1.272       .  A
O277        C284   1.272       .  A
O278        C284   1.273       .  A
C279       C1738   1.435       .  S
C280       C1934   1.436       .  S
C281       C2146   1.435       .  S
C282       C2454   1.433       .  S
C283       C2314   1.436       .  S
C284       C1724   1.437       .  S
Zn285       O289   1.963   1_655  S
Zn285       O290   2.013       .  S
Zn285       O294   2.017       .  S
Zn285       O301   2.018       .  S
Zn286       O289   1.968   1_655  S
Zn286       O291   2.024       .  S
Zn286       O293   2.021       .  S
Zn286       O297   2.021       .  S
Zn287       O289   1.962       .  S
Zn287       O292   2.014       .  S
Zn287       O295   2.011       .  S
Zn287       O298   2.018       .  S
Zn288       O289   1.963       .  S
Zn288       O296   2.021       .  S
Zn288       O299   2.013       .  S
Zn288       O300   2.022       .  S
O290        C302   1.271       .  A
O291        C303   1.273   1_655  A
O292        C304   1.272       .  A
O293        C302   1.272       .  A
O294        C304   1.272   1_655  A
O295        C303   1.271       .  A
O296        C305   1.272       .  A
O297        C306   1.272   1_655  A
O298        C305   1.272       .  A
O299        C306   1.271       .  A
O300        C307   1.272       .  A
O301        C307   1.272   1_655  A
C302       C2552   1.435       .  S
C303       C1992   1.435       .  S
C304       C2132   1.434       .  S
C305       C1710   1.436       .  S
C306       C2510   1.435       .  S
C307       C1696   1.436       .  S
C308        C309   1.536       .  S
C308        C314   1.537       .  S
C308        C312   1.537       .  S
C308       C1682   1.469       .  S
C309        H316   1.086       .  S
C309        C310   1.364       .  D
C310        C311   1.533       .  S
C310       C1768   1.440       .  S
C311        C315   1.533       .  S
C311        C313   1.534       .  S
C311        H317   1.112       .  S
C312        H318   1.086       .  S
C312        C313   1.365       .  D
C313       C1712   1.442       .  S
C314        H319   1.086       .  S
C314        C315   1.364       .  D
C315       C1740   1.440       .  S
Zn320       O324   1.965       .  S
Zn320       O325   2.020       .  S
Zn320       O329   2.021       .  S
Zn320       O336   2.017       .  S
Zn321       O324   1.963       .  S
Zn321       O326   2.017       .  S
Zn321       O328   2.016       .  S
Zn321       O332   2.014       .  S
Zn322       O324   1.965       .  S
Zn322       O327   2.022       .  S
Zn322       O330   2.021       .  S
Zn322       O333   2.014       .  S
Zn323       O324   1.971       .  S
Zn323       O331   2.026       .  S
Zn323       O334   2.029       .  S
Zn323       O335   2.030       .  S
O325        C337   1.272       .  A
O326        C338   1.272       .  A
O327        C339   1.272       .  A
O328        C337   1.272       .  A
O329        C339   1.272       .  A
O330        C338   1.272       .  A
O331        C340   1.273       .  A
O332        C341   1.271       .  A
O333        C340   1.272       .  A
O334        C341   1.273       .  A
O335        C342   1.273       .  A
O336        C342   1.272       .  A
C337       C1626   1.435       .  S
C338       C1654   1.436       .  S
C339       C1640   1.437       .  S
C340       C1866   1.436       .  S
C341       C1668   1.437       .  S
C342       C1824   1.438       .  S
C343        C344   1.530       .  S
C343        C349   1.531       .  S
C343        C347   1.531       .  S
C343       C1584   1.465       .  S
C344        H351   1.087       .  S
C344        C345   1.363       .  D
C345        C346   1.542       .  S
C345       C1600   1.443       .  S
C346        C350   1.540       .  S
C346        C348   1.541       .  S
C346        H352   1.111       .  S
C347        H353   1.087       .  S
C347        C348   1.363       .  D
C348       C1614   1.444       .  S
C349        H354   1.087       .  S
C349        C350   1.364       .  D
C350       C1684   1.442       .  S
C355        C356   1.536       .  S
C355        C361   1.537   1_565  S
C355        C359   1.537       .  S
C355       C1612   1.471       .  S
C356        H363   1.087       .  S
C356        C357   1.364       .  D
C357        C358   1.534   1_565  S
C357       C1556   1.442       .  S
C358        C362   1.534       .  S
C358        C360   1.534   1_545  S
C358        H364   1.112       .  S
C359        H365   1.086       .  S
C359        C360   1.365       .  D
C360       C1570   1.442       .  S
C361        H366   1.086       .  S
C361        C362   1.365       .  D
C362       C2410   1.441       .  S
C367        C368   1.536       .  S
C367        C373   1.538   1_556  S
C367        C371   1.535       .  S
C367       C1598   1.469       .  S
C368        H375   1.086       .  S
C368        C369   1.364       .  D
C369        C370   1.533   1_556  S
C369       C2230   1.439       .  S
C370        C374   1.534       .  S
C370        C372   1.533   1_554  S
C370        H376   1.112       .  S
C371        H377   1.086       .  S
C371        C372   1.363       .  D
C372       C1542   1.438       .  S
C373        H378   1.087       .  S
C373        C374   1.366       .  D
C374       C1656   1.442       .  S
C379        C380   1.536       .  S
C379        C385   1.537       .  S
C379        C383   1.536       .  S
C379       C1514   1.470       .  S
C380        H387   1.086       .  S
C380        C381   1.364       .  D
C381        C382   1.535       .  S
C381       C1500   1.442       .  S
C382        C386   1.535       .  S
C382        C384   1.534       .  S
C382        H388   1.112       .  S
C383        H389   1.086       .  S
C383        C384   1.364       .  D
C384       C1528   1.442       .  S
C385        H390   1.086       .  S
C385        C386   1.365       .  D
C386       C1486   1.442       .  S
Zn391       O395   1.963       .  S
Zn391       O396   2.015       .  S
Zn391       O400   2.018       .  S
Zn391       O407   2.011       .  S
Zn392       O395   1.964       .  S
Zn392       O397   2.020       .  S
Zn392       O399   2.020       .  S
Zn392       O403   2.017       .  S
Zn393       O395   1.964       .  S
Zn393       O398   2.020       .  S
Zn393       O401   2.020       .  S
Zn393       O404   2.015       .  S
Zn394       O395   1.970       .  S
Zn394       O402   2.026       .  S
Zn394       O405   2.029       .  S
Zn394       O406   2.028       .  S
O396        C408   1.271       .  A
O397        C409   1.272       .  A
O398        C410   1.272       .  A
O399        C408   1.272       .  A
O400        C410   1.272       .  A
O401        C409   1.272       .  A
O402        C411   1.273       .  A
O403        C412   1.272       .  A
O404        C411   1.272       .  A
O405        C412   1.273       .  A
O406        C413   1.273       .  A
O407        C413   1.271       .  A
C408       C1430   1.435       .  S
C409       C1444   1.436       .  S
C410       C2104   1.436       .  S
C411       C1460   1.436       .  S
C412       C1502   1.438       .  S
C413       C1472   1.436       .  S
C414        C415   1.536       .  S
C414        C420   1.538       .  S
C414        C418   1.537       .  S
C414       C1404   1.471       .  S
C415        H422   1.086       .  S
C415        C416   1.364       .  D
C416        C417   1.533       .  S
C416       C1416   1.439       .  S
C417        C421   1.533       .  S
C417        C419   1.533       .  S
C417        H423   1.112       .  S
C418        H424   1.087       .  S
C418        C419   1.364       .  D
C419       C1458   1.441       .  S
C420        H425   1.086       .  S
C420        C421   1.365       .  D
C421       C1388   1.442       .  S
Zn426       O430   1.967       .  S
Zn426       O431   2.028       .  S
Zn426       O435   2.022       .  S
Zn426       O442   2.020       .  S
Zn427       O430   1.963   1_545  S
Zn427       O432   2.016       .  S
Zn427       O434   2.016       .  S
Zn427       O438   2.017       .  S
Zn428       O430   1.963       .  S
Zn428       O433   2.016       .  S
Zn428       O436   2.010       .  S
Zn428       O439   2.021       .  S
Zn429       O430   1.963   1_545  S
Zn429       O437   2.020       .  S
Zn429       O440   2.017       .  S
Zn429       O441   2.014       .  S
O431        C443   1.273       .  A
O432        C444   1.272   1_545  A
O433        C445   1.272       .  A
O434        C443   1.271   1_545  A
O435        C445   1.272       .  A
O436        C444   1.271       .  A
O437        C446   1.272   1_545  A
O438        C447   1.272       .  A
O439        C446   1.272       .  A
O440        C447   1.272       .  A
O441        C448   1.272   1_545  A
O442        C448   1.272       .  A
C443       C2496   1.438       .  S
C444       C1360   1.432       .  S
C445       C2538   1.435       .  S
C446       C1572   1.437       .  S
C447       C1374   1.434       .  S
C448       C2606   1.434       .  S
C449        C450   1.538       .  S
C449        C455   1.536       .  S
C449        C453   1.536       .  S
C449       C2202   1.468       .  S
C450        H457   1.086       .  S
C450        C451   1.365       .  D
C451        C452   1.532       .  S
C451       C1376   1.440       .  S
C452        C456   1.533       .  S
C452        C454   1.532       .  S
C452        H458   1.112       .  S
C453        H459   1.086       .  S
C453        C454   1.363       .  D
C454       C1346   1.438       .  S
C455        H460   1.086       .  S
C455        C456   1.364       .  D
C456       C2370   1.439       .  S
Zn461       O465   1.967       .  S
Zn461       O466   2.023       .  S
Zn461       O470   2.021       .  S
Zn461       O477   2.019       .  S
Zn462       O465   1.962       .  S
Zn462       O467   2.013       .  S
Zn462       O469   2.014       .  S
Zn462       O473   2.018       .  S
Zn463       O465   1.962       .  S
Zn463       O468   2.015       .  S
Zn463       O471   2.013       .  S
Zn463       O474   2.018       .  S
Zn464       O465   1.962       .  S
Zn464       O472   2.021       .  S
Zn464       O475   2.020       .  S
Zn464       O476   2.009       .  S
O466        C478   1.272       .  A
O467        C479   1.272       .  A
O468        C480   1.271       .  A
O469        C478   1.271       .  A
O470        C480   1.272       .  A
O471        C479   1.272       .  A
O472        C481   1.272       .  A
O473        C482   1.272       .  A
O474        C481   1.272       .  A
O475        C482   1.272       .  A
O476        C483   1.271       .  A
O477        C483   1.272       .  A
C478       C1320   1.436       .  S
C479       C1418   1.432       .  S
C480       C1304   1.436       .  S
C481       C1530   1.436       .  S
C482       C1332   1.436       .  S
C483       C1348   1.433       .  S
C484        C485   1.531       .  S
C484        C490   1.531       .  S
C484        C488   1.532       .  S
C484       C1248   1.468       .  S
C485        H492   1.087       .  S
C485        C486   1.364       .  D
C486        C487   1.541       .  S
C486       C1290   1.443       .  S
C487        C491   1.542       .  S
C487        C489   1.541       .  S
C487        H493   1.111       .  S
C488        H494   1.087       .  S
C488        C489   1.364       .  D
C489       C1278   1.445       .  S
C490        H495   1.087       .  S
C490        C491   1.364       .  D
C491       C1262   1.444       .  S
C496        C497   1.538   1_565  S
C496        C502   1.537       .  S
C496        C500   1.536       .  S
C496       C1276   1.471       .  S
C497        H504   1.086       .  S
C497        C498   1.365       .  D
C498        C499   1.534       .  S
C498       C1318   1.442       .  S
C499        C503   1.533   1_545  S
C499        C501   1.533   1_545  S
C499        H505   1.112       .  S
C500        H506   1.086       .  S
C500        C501   1.364       .  D
C501       C1362   1.439       .  S
C502        H507   1.087       .  S
C502        C503   1.364       .  D
C503       C1234   1.441       .  S
C508        C509   1.538   1_655  S
C508        C514   1.537       .  S
C508        C512   1.537       .  S
C508       C1264   1.472       .  S
C509        H516   1.086       .  S
C509        C510   1.366       .  D
C510        C511   1.534       .  S
C510       C1780   1.443       .  S
C511        C515   1.534       .  S
C511        C513   1.534       .  S
C511        H517   1.112       .  S
C512        H518   1.086       .  S
C512        C513   1.364   1_655  D
C513       C1222   1.442   1_455  S
C514        H519   1.086       .  S
C514        C515   1.364   1_655  D
C515       C1698   1.441       .  S
C520        C521   1.536       .  S
C520        C526   1.537       .  S
C520        C524   1.535       .  S
C520       C1292   1.469       .  S
C521        H528   1.086       .  S
C521        C522   1.364       .  D
C522        C523   1.534       .  S
C522       C1628   1.441       .  S
C523        C527   1.534       .  S
C523        C525   1.534       .  S
C523        H529   1.112       .  S
C524        H530   1.086       .  S
C524        C525   1.363       .  D
C525       C1432   1.440       .  S
C526        H531   1.086       .  S
C526        C527   1.365       .  D
C527       C2258   1.441       .  S
C532        C533   1.536       .  S
C532        C538   1.538       .  S
C532        C536   1.537       .  S
C532       C1208   1.472       .  S
C533        H540   1.086       .  S
C533        C534   1.364       .  D
C534        C535   1.534       .  S
C534       C1754   1.441       .  S
C535        C539   1.535       .  S
C535        C537   1.534       .  S
C535        H541   1.112       .  S
C536        H542   1.086       .  S
C536        C537   1.364       .  D
C537       C1726   1.442       .  S
C538        H543   1.086       .  S
C538        C539   1.366       .  D
C539       C1194   1.443       .  S
Zn544       O548   1.964       .  S
Zn544       O549   2.015       .  S
Zn544       O553   2.018       .  S
Zn544       O560   2.017       .  S
Zn545       O548   1.964   1_554  S
Zn545       O550   2.014       .  S
Zn545       O552   2.015       .  S
Zn545       O556   2.024       .  S
Zn546       O548   1.969       .  S
Zn546       O551   2.030       .  S
Zn546       O554   2.024       .  S
Zn546       O557   2.025       .  S
Zn547       O548   1.964   1_554  S
Zn547       O555   2.014       .  S
Zn547       O558   2.023       .  S
Zn547       O559   2.018       .  S
O549        C561   1.272       .  A
O550        C562   1.272   1_554  A
O551        C563   1.273       .  A
O552        C561   1.272   1_554  A
O553        C563   1.272       .  A
O554        C562   1.273       .  A
O555        C564   1.272   1_554  A
O556        C565   1.272       .  A
O557        C564   1.273       .  A
O558        C565   1.272       .  A
O559        C566   1.272   1_554  A
O560        C566   1.272       .  A
C561       C1544   1.433       .  S
C562       C1922   1.436       .  S
C563       C2328   1.439       .  S
C564       C2272   1.436       .  S
C565       C1178   1.438       .  S
C566       C2090   1.435       .  S
C567        C568   1.537       .  S
C567        C573   1.539       .  S
C567        C571   1.537       .  S
C567       C1164   1.473       .  S
C568        H575   1.086       .  S
C568        C569   1.365       .  D
C569        C570   1.534       .  S
C569       C1446   1.442       .  S
C570        C574   1.534       .  S
C570        C572   1.534       .  S
C570        H576   1.112       .  S
C571        H577   1.086       .  S
C571        C572   1.364       .  D
C572       C1642   1.442       .  S
C573        H578   1.086       .  S
C573        C574   1.366       .  D
C574       C1180   1.443       .  S
C579        C580   1.532       .  S
C579        C585   1.532       .  S
C579        C583   1.532       .  S
C579       C1150   1.469       .  S
C580        H587   1.087       .  S
C580        C581   1.364       .  D
C581        C582   1.543       .  S
C581       C1166   1.446       .  S
C582        C586   1.543       .  S
C582        C584   1.544       .  S
C582        H588   1.111       .  S
C583        H589   1.087       .  S
C583        C584   1.364       .  D
C584       C1138   1.447       .  S
C585        H590   1.087       .  S
C585        C586   1.364       .  D
C586       C1206   1.446       .  S
C591        C592   1.539       .  S
C591        C597   1.538       .  S
C591        C595   1.537       .  S
C591       C1136   1.475       .  S
C592        H599   1.086       .  S
C592        C593   1.366       .  D
C593        C594   1.534       .  S
C593       C1124   1.443       .  S
C594        C598   1.533       .  S
C594        C596   1.533       .  S
C594        H600   1.112       .  S
C595        H601   1.086       .  S
C595        C596   1.364       .  D
C596       C2356   1.442       .  S
C597        H602   1.086       .  S
C597        C598   1.365       .  D
C598       C1306   1.442       .  S
Zn603       O607   1.970       .  S
Zn603       O608   2.023       .  S
Zn603       O612   2.026       .  S
Zn603       O619   2.027       .  S
Zn604       O607   1.966   1_545  S
Zn604       O609   2.024       .  S
Zn604       O611   2.018       .  S
Zn604       O615   2.021       .  S
Zn605       O607   1.966       .  S
Zn605       O610   2.020       .  S
Zn605       O613   2.022       .  S
Zn605       O616   2.020       .  S
Zn606       O607   1.967   1_545  S
Zn606       O614   2.021       .  S
Zn606       O617   2.024       .  S
Zn606       O618   2.021       .  S
O608        C620   1.273       .  A
O609        C621   1.272   1_545  A
O610        C622   1.272       .  A
O611        C620   1.272   1_545  A
O612        C622   1.273       .  A
O613        C621   1.272       .  A
O614        C623   1.272   1_545  A
O615        C624   1.272       .  A
O616        C623   1.272       .  A
O617        C624   1.273       .  A
O618        C625   1.272   1_545  A
O619        C625   1.273       .  A
C620       C2034   1.436       .  S
C621       C1558   1.438       .  S
C622       C1796   1.438       .  S
C623       C1236   1.436       .  S
C624       C1122   1.438       .  S
C625       C1108   1.438       .  S
C626        C627   1.536       .  S
C626        C632   1.537   1_545  S
C626        C630   1.537       .  S
C626       C1080   1.470       .  S
C627        H634   1.086       .  S
C627        C628   1.364   1_545  D
C628        C629   1.534       .  S
C628       C1094   1.440       .  S
C629        C633   1.534       .  S
C629        C631   1.534       .  S
C629        H635   1.112       .  S
C630        H636   1.086       .  S
C630        C631   1.365   1_545  D
C631       C1110   1.443       .  S
C632        H637   1.086       .  S
C632        C633   1.365       .  D
C633       C1670   1.442       .  S
C638        C639   1.535       .  S
C638        C644   1.537   1_455  S
C638        C642   1.536       .  S
C638       C1850   1.470       .  S
C639        H646   1.087       .  S
C639        C640   1.363       .  D
C640        C641   1.534   1_455  S
C640       C1052   1.440       .  S
C641        C645   1.534       .  S
C641        C643   1.535   1_655  S
C641        H647   1.112       .  S
C642        H648   1.086       .  S
C642        C643   1.364       .  D
C643       C1066   1.442       .  S
C644        H649   1.086       .  S
C644        C645   1.365       .  D
C645       C1474   1.441       .  S
Zn650       O654   1.964   1_655  S
Zn650       O655   2.015       .  S
Zn650       O659   2.018       .  S
Zn650       O666   2.014       .  S
Zn651       O654   1.969       .  S
Zn651       O656   2.021       .  S
Zn651       O658   2.027       .  S
Zn651       O662   2.025       .  S
Zn652       O654   1.965   1_655  S
Zn652       O657   2.020       .  S
Zn652       O660   2.014       .  S
Zn652       O663   2.022       .  S
Zn653       O654   1.965       .  S
Zn653       O661   2.025       .  S
Zn653       O664   2.017       .  S
Zn653       O665   2.022       .  S
O655        C667   1.271   1_655  A
O656        C668   1.273       .  A
O657        C669   1.272       .  A
O658        C667   1.273       .  A
O659        C669   1.272       .  A
O660        C668   1.272   1_655  A
O661        C670   1.273       .  A
O662        C671   1.273       .  A
O663        C670   1.272   1_655  A
O664        C671   1.272       .  A
O665        C672   1.273       .  A
O666        C672   1.271   1_655  A
C667       C1220   1.437       .  S
C668       C2118   1.435       .  S
C669       C1488   1.436       .  S
C670       C1040   1.439       .  S
C671       C1192   1.437       .  S
C672       C1054   1.435       .  S
C673        C674   1.538       .  S
C673        C679   1.536       .  S
C673        C677   1.536   1_455  S
C673       C2020   1.471       .  S
C674        H681   1.086       .  S
C674        C675   1.366       .  D
C675        C676   1.535   1_455  S
C675       C1038   1.444       .  S
C676        C680   1.535   1_655  S
C676        C678   1.534       .  S
C676        H682   1.112       .  S
C677        H683   1.087       .  S
C677        C678   1.364       .  D
C678       C1334   1.441       .  S
C679        H684   1.086       .  S
C679        C680   1.364       .  D
C680       C1024   1.441       .  S
C685        C686   1.535       .  S
C685        C691   1.535   1_556  S
C685        C689   1.536   1_565  S
C685       C1586   1.465       .  S
C686        H693   1.086       .  S
C686        C687   1.363       .  D
C687        C688   1.532   1_566  S
C687        C996   1.437       .  S
C688        C692   1.533   1_545  S
C688        C690   1.532   1_554  S
C688        H694   1.112       .  S
C689        H695   1.086       .  S
C689        C690   1.364       .  D
C690        C984   1.438       .  S
C691        H696   1.086       .  S
C691        C692   1.363       .  D
C692       C1012   1.439       .  S
Zn697       O701   1.961   1_545  S
Zn697       O702   2.016       .  S
Zn697       O706   2.014       .  S
Zn697       O713   2.010       .  S
Zn698       O701   1.961   1_644  S
Zn698       O703   2.011       .  S
Zn698       O705   2.016       .  S
Zn698       O709   2.015       .  S
Zn699       O701   1.966   1_655  S
Zn699       O704   2.024       .  S
Zn699       O707   2.019       .  S
Zn699       O710   2.023       .  S
Zn700       O701   1.962   1_554  S
Zn700       O708   2.013   1_554  S
Zn700       O711   2.018       .  S
Zn700       O712   2.012   1_554  S
O702        C714   1.271       .  A
O703        C715   1.271   1_544  A
O704        C716   1.273   1_655  A
O705        C714   1.272   1_654  A
O706        C716   1.271   1_545  A
O707        C715   1.272       .  A
O708        C717   1.271       .  A
O709        C718   1.271   1_645  A
O710        C717   1.272   1_655  A
O711        C718   1.272       .  A
O712        C719   1.271       .  A
O713        C719   1.271   1_545  A
C714        C954   1.434       .  S
C715       C2594   1.433       .  S
C716       C2482   1.436       .  S
C717       C1978   1.435       .  S
C718        C968   1.435       .  S
C719        C998   1.431       .  S
C720        C721   1.536   1_565  S
C720        C726   1.536   1_655  S
C720        C724   1.536       .  S
C720       C1250   1.469       .  S
C721        H728   1.086       .  S
C721        C722   1.364   1_655  D
C722        C723   1.534       .  S
C722        C926   1.441       .  S
C723        C727   1.533   1_545  S
C723        C725   1.534   1_545  S
C723        H729   1.112       .  S
C724        H730   1.086       .  S
C724        C725   1.364   1_655  D
C725        C970   1.440       .  S
C726        H731   1.086       .  S
C726        C727   1.364       .  D
C727        C940   1.440       .  S
C732        C733   1.536   1_556  S
C732        C738   1.536       .  S
C732        C736   1.536   1_655  S
C732       C2158   1.467       .  S
C733        H740   1.086       .  S
C733        C734   1.364   1_655  D
C734        C735   1.533       .  S
C734        C898   1.439       .  S
C735        C739   1.533   1_554  S
C735        C737   1.533   1_554  S
C735        H741   1.112       .  S
C736        H742   1.086       .  S
C736        C737   1.364       .  D
C737        C912   1.439       .  S
C738        H743   1.086       .  S
C738        C739   1.364   1_655  D
C739        C956   1.439       .  S
Zn744       O748   1.962   1_554  S
Zn744       O749   2.019       .  S
Zn744       O753   2.016       .  S
Zn744       O760   2.018       .  S
Zn745       O748   1.962       .  S
Zn745       O750   2.013       .  S
Zn745       O752   2.017       .  S
Zn745       O756   2.015       .  S
Zn746       O748   1.965   1_554  S
Zn746       O751   2.016       .  S
Zn746       O754   2.015       .  S
Zn746       O757   2.016       .  S
Zn747       O748   1.961       .  S
Zn747       O755   2.014       .  S
Zn747       O758   2.014       .  S
Zn747       O759   2.018       .  S
O749        C761   1.272   1_554  A
O750        C762   1.271       .  A
O751        C763   1.272       .  A
O752        C761   1.272       .  A
O753        C763   1.272       .  A
O754        C762   1.271   1_554  A
O755        C764   1.271       .  A
O756        C765   1.272       .  A
O757        C764   1.271   1_554  A
O758        C765   1.271       .  A
O759        C766   1.272       .  A
O760        C766   1.272   1_554  A
C761       C2284   1.435       .  S
C762        C982   1.433       .  S
C763        C884   1.434       .  S
C764        C914   1.434       .  S
C765       C2426   1.433       .  S
C766       C1964   1.435       .  S
Zn767       O771   1.964   1_545  S
Zn767       O772   2.016       .  S
Zn767       O776   2.019       .  S
Zn767       O783   2.018       .  S
Zn768       O771   1.962       .  S
Zn768       O773   2.018       .  S
Zn768       O775   2.015       .  S
Zn768       O779   2.017       .  S
Zn769       O771   1.962   1_545  S
Zn769       O774   2.015       .  S
Zn769       O777   2.016       .  S
Zn769       O780   2.013       .  S
Zn770       O771   1.963       .  S
Zn770       O778   2.019       .  S
Zn770       O781   2.019       .  S
Zn770       O782   2.017       .  S
O772        C784   1.272   1_545  A
O773        C785   1.272       .  A
O774        C786   1.271       .  A
O775        C784   1.272       .  A
O776        C786   1.272       .  A
O777        C785   1.272   1_545  A
O778        C787   1.272       .  A
O779        C788   1.272       .  A
O780        C787   1.271   1_545  A
O781        C788   1.272       .  A
O782        C789   1.272       .  A
O783        C789   1.272   1_545  A
C784       C1010   1.434       .  S
C785       C1096   1.435       .  S
C786        C870   1.435       .  S
C787       C2048   1.434       .  S
C788       C1894   1.435       .  S
C789        C942   1.435       .  S
Zn790       O794   1.963       .  S
Zn790       O795   2.018       .  S
Zn790       O799   2.018       .  S
Zn790       O806   2.011       .  S
Zn791       O794   1.964       .  S
Zn791       O796   2.018       .  S
Zn791       O798   2.019       .  S
Zn791       O802   2.015       .  S
Zn792       O794   1.963   1_655  S
Zn792       O797   2.019       .  S
Zn792       O800   2.015       .  S
Zn792       O803   2.016       .  S
Zn793       O794   1.969   1_655  S
Zn793       O801   2.026       .  S
Zn793       O804   2.026       .  S
Zn793       O805   2.026       .  S
O795        C807   1.272       .  A
O796        C808   1.272       .  A
O797        C809   1.272   1_655  A
O798        C807   1.272       .  A
O799        C809   1.272       .  A
O800        C808   1.271   1_655  A
O801        C810   1.273       .  A
O802        C811   1.272       .  A
O803        C810   1.272       .  A
O804        C811   1.273   1_655  A
O805        C812   1.273   1_655  A
O806        C812   1.271       .  A
C807        C856   1.436       .  S
C808        C900   1.434       .  S
C809        C928   1.435       .  S
C810       C1390   1.437       .  S
C811       C1068   1.437       .  S
C812       C1026   1.435       .  S
C813        C814   1.536       .  S
C813        C819   1.536       .  S
C813        C817   1.536       .  S
C813       C1152   1.469       .  S
C814        H821   1.087       .  S
C814        C815   1.364       .  D
C815        C816   1.534       .  S
C815        C886   1.440       .  S
C816        C820   1.535       .  S
C816        C818   1.534       .  S
C816        H822   1.112       .  S
C817        H823   1.086       .  S
C817        C818   1.365       .  D
C818        C858   1.441       .  S
C819        H824   1.086       .  S
C819        C820   1.364       .  D
C820        C872   1.441       .  S
C825        C826   1.531       .  S
C825        C831   1.532       .  S
C825        C829   1.533       .  S
C825       C2636   1.467       .  S
C826        H833   1.087       .  S
C826        C827   1.363       .  D
C827        C828   1.541       .  S
C827       C1082   1.443       .  S
C828        C832   1.542       .  S
C828        C830   1.541       .  S
C828        H834   1.111       .  S
C829        H835   1.087       .  S
C829        C830   1.364       .  D
C830       C2300   1.444       .  S
C831        H836   1.087       .  S
C831        C832   1.364       .  D
C832       C1402   1.444       .  S
C837        C838   1.532       .  S
C837        C843   1.531       .  S
C837        C841   1.532       .  S
C837       C2578   1.468       .  S
C838        H845   1.087       .  S
C838        C839   1.364       .  D
C839        C840   1.543       .  S
C839       C1810   1.446       .  S
C840        C844   1.541       .  S
C840        C842   1.542       .  S
C840        H846   1.111       .  S
C841        H847   1.087       .  S
C841        C842   1.364       .  D
C842       C2342   1.444       .  S
C843        H848   1.087       .  S
C843        C844   1.363       .  D
C844       C1516   1.443       .  S
C849        C857   1.440       .  S
C849        C850   1.402       .  A
C849        C854   1.401       .  A
C850        C851   1.399       .  A
C850        H859   1.083       .  S
C851        C852   1.401       .  A
C851        H860   1.083       .  S
C852        C855   1.440       .  S
C852        C853   1.401       .  A
C853        C854   1.399       .  A
C853        H861   1.084       .  S
C854        H862   1.084       .  S
C855        C856   1.206       .  T
C857        C858   1.206       .  T
C863        C871   1.440       .  S
C863        C864   1.401       .  A
C863        C868   1.401       .  A
C864        C865   1.399       .  A
C864        H873   1.083       .  S
C865        C866   1.402       .  A
C865        H874   1.083       .  S
C866        C869   1.440       .  S
C866        C867   1.401       .  A
C867        C868   1.399       .  A
C867        H875   1.083       .  S
C868        H876   1.083       .  S
C869        C870   1.206       .  T
C871        C872   1.206       .  T
C877        C885   1.439       .  S
C877        C878   1.401       .  A
C877        C882   1.401       .  A
C878        C879   1.399       .  A
C878        H887   1.083       .  S
C879        C880   1.401       .  A
C879        H888   1.083       .  S
C880        C883   1.439       .  S
C880        C881   1.401       .  A
C881        C882   1.398       .  A
C881        H889   1.083       .  S
C882        H890   1.084       .  S
C883        C884   1.205       .  T
C885        C886   1.205       .  T
C891        C899   1.439       .  S
C891        C892   1.401       .  A
C891        C896   1.402   1_455  A
C892        C893   1.398       .  A
C892        H901   1.083       .  S
C893        C894   1.401       .  A
C893        H902   1.084       .  S
C894        C897   1.438       .  S
C894        C895   1.401   1_455  A
C895        C896   1.399       .  A
C895        H903   1.083       .  S
C896        H904   1.083       .  S
C897        C898   1.205       .  T
C899        C900   1.205       .  T
C905        C913   1.438       .  S
C905        C906   1.401       .  A
C905        C910   1.401       .  A
C906        C907   1.399       .  A
C906        H915   1.083       .  S
C907        C908   1.401       .  A
C907        H916   1.083       .  S
C908        C911   1.438       .  S
C908        C909   1.401       .  A
C909        C910   1.398       .  A
C909        H917   1.084   1_556  S
C910        H918   1.083   1_556  S
C911        C912   1.205       .  T
C913        C914   1.205       .  T
C919        C927   1.440       .  S
C919        C920   1.401       .  A
C919        C924   1.401   1_455  A
C920        C921   1.399       .  A
C920        H929   1.084       .  S
C921        C922   1.401       .  A
C921        H930   1.083       .  S
C922        C925   1.439       .  S
C922        C923   1.401   1_455  A
C923        C924   1.399       .  A
C923        H931   1.084       .  S
C924        H932   1.083       .  S
C925        C926   1.205       .  T
C927        C928   1.206       .  T
C933        C941   1.440       .  S
C933        C934   1.401       .  A
C933        C938   1.401       .  A
C934        C935   1.399       .  A
C934        H943   1.084       .  S
C935        C936   1.401       .  A
C935        H944   1.083       .  S
C936        C939   1.439       .  S
C936        C937   1.401       .  A
C937        C938   1.399       .  A
C937        H945   1.083   1_565  S
C938        H946   1.083   1_565  S
C939        C940   1.205       .  T
C941        C942   1.206       .  T
C947        C955   1.438       .  S
C947        C948   1.401       .  A
C947        C952   1.401   1_455  A
C948        C949   1.399       .  A
C948        H957   1.083       .  S
C949        C950   1.401       .  A
C949        H958   1.083       .  S
C950        C953   1.439       .  S
C950        C951   1.401   1_455  A
C951        C952   1.398       .  A
C951        H959   1.083       .  S
C952        H960   1.084       .  S
C953        C954   1.205       .  T
C955        C956   1.205       .  T
C961        C969   1.439       .  S
C961        C962   1.401       .  A
C961        C966   1.401   1_455  A
C962        C963   1.399       .  A
C962        H971   1.083       .  S
C963        C964   1.401       .  A
C963        H972   1.083       .  S
C964        C967   1.439       .  S
C964        C965   1.401   1_455  A
C965        C966   1.399       .  A
C965        H973   1.083   1_565  S
C966        H974   1.083   1_565  S
C967        C968   1.206       .  T
C969        C970   1.205       .  T
C975        C983   1.437       .  S
C975        C976   1.400       .  A
C975        C980   1.401       .  A
C976        C977   1.397   1_556  A
C976        H985   1.084   1_556  S
C977        C978   1.401   1_554  A
C977        H986   1.083       .  S
C978        C981   1.437       .  S
C978        C979   1.401       .  A
C979        C980   1.399       .  A
C979        H987   1.084       .  S
C980        H988   1.083       .  S
C981        C982   1.205       .  T
C983        C984   1.204       .  T
C989        C997   1.436       .  S
C989        C990   1.400   1_556  A
C989        C994   1.401       .  A
C990        C991   1.397       .  A
C990        H999   1.083       .  S
C991        C992   1.401   1_554  A
C991       H1000   1.084       .  S
C992        C995   1.436       .  S
C992        C993   1.401       .  A
C993        C994   1.398       .  A
C993       H1001   1.083       .  S
C994       H1002   1.083       .  S
C995        C996   1.203       .  T
C997        C998   1.204       .  T
C1003      C1011   1.438       .  S
C1003      C1004   1.401       .  A
C1003      C1008   1.401   1_565  A
C1004      C1005   1.398       .  A
C1004      H1013   1.083       .  S
C1005      C1006   1.401       .  A
C1005      H1014   1.084       .  S
C1006      C1009   1.438       .  S
C1006      C1007   1.401   1_565  A
C1007      C1008   1.399       .  A
C1007      H1015   1.083       .  S
C1008      H1016   1.083       .  S
C1009      C1010   1.205       .  T
C1011      C1012   1.204       .  T
C1017      C1025   1.440       .  S
C1017      C1018   1.401   1_455  A
C1017      C1022   1.402       .  A
C1018      C1019   1.399       .  A
C1018      H1027   1.084       .  S
C1019      C1020   1.401   1_655  A
C1019      H1028   1.084       .  S
C1020      C1023   1.440       .  S
C1020      C1021   1.401       .  A
C1021      C1022   1.400       .  A
C1021      H1029   1.083       .  S
C1022      H1030   1.083       .  S
C1023      C1024   1.206       .  T
C1025      C1026   1.206       .  T
C1031      C1039   1.443       .  S
C1031      C1032   1.402       .  A
C1031      C1036   1.402   1_455  A
C1032      C1033   1.400       .  A
C1032      H1041   1.083       .  S
C1033      C1034   1.402       .  A
C1033      H1042   1.084       .  S
C1034      C1037   1.443       .  S
C1034      C1035   1.402   1_455  A
C1035      C1036   1.400       .  A
C1035      H1043   1.083       .  S
C1036      H1044   1.083       .  S
C1037      C1038   1.208       .  T
C1039      C1040   1.208       .  T
C1045      C1053   1.439       .  S
C1045      C1046   1.401   1_455  A
C1045      C1050   1.402       .  A
C1046      C1047   1.399       .  A
C1046      H1055   1.084       .  S
C1047      C1048   1.401   1_655  A
C1047      H1056   1.083       .  S
C1048      C1051   1.439       .  S
C1048      C1049   1.401       .  A
C1049      C1050   1.399       .  A
C1049      H1057   1.084       .  S
C1050      H1058   1.083       .  S
C1051      C1052   1.205       .  T
C1053      C1054   1.206       .  T
C1059      C1067   1.441       .  S
C1059      C1060   1.401       .  A
C1059      C1064   1.402       .  A
C1060      C1061   1.399       .  A
C1060      H1069   1.084   1_455  S
C1061      C1062   1.402       .  A
C1061      H1070   1.084       .  S
C1062      C1065   1.441       .  S
C1062      C1063   1.401       .  A
C1063      C1064   1.400       .  A
C1063      H1071   1.083       .  S
C1064      H1072   1.083       .  S
C1065      C1066   1.206       .  T
C1067      C1068   1.207       .  T
C1073      C1081   1.442       .  S
C1073      C1074   1.402       .  A
C1073      C1078   1.401       .  A
C1074      C1075   1.399       .  A
C1074      H1083   1.083       .  S
C1075      C1076   1.401       .  A
C1075      H1084   1.083       .  S
C1076      C1079   1.442       .  S
C1076      C1077   1.402       .  A
C1077      C1078   1.401       .  A
C1077      H1085   1.084       .  S
C1078      H1086   1.084       .  S
C1079      C1080   1.208       .  T
C1081      C1082   1.207       .  T
C1087      C1095   1.439       .  S
C1087      C1088   1.402       .  A
C1087      C1092   1.401       .  A
C1088      C1089   1.399       .  A
C1088      H1097   1.083       .  S
C1089      C1090   1.401       .  A
C1089      H1098   1.083       .  S
C1090      C1093   1.439       .  S
C1090      C1091   1.401       .  A
C1091      C1092   1.398       .  A
C1091      H1099   1.084   1_565  S
C1092      H1100   1.083   1_565  S
C1093      C1094   1.205       .  T
C1095      C1096   1.206       .  T
C1101      C1109   1.442       .  S
C1101      C1102   1.402       .  A
C1101      C1106   1.401   1_565  A
C1102      C1103   1.400       .  A
C1102      H1111   1.083       .  S
C1103      C1104   1.402       .  A
C1103      H1112   1.083       .  S
C1104      C1107   1.443       .  S
C1104      C1105   1.402   1_565  A
C1105      C1106   1.400       .  A
C1105      H1113   1.084       .  S
C1106      H1114   1.083       .  S
C1107      C1108   1.208       .  T
C1109      C1110   1.207       .  T
C1115      C1123   1.442       .  S
C1115      C1116   1.402       .  A
C1115      C1120   1.401       .  A
C1116      C1117   1.400       .  A
C1116      H1125   1.083       .  S
C1117      C1118   1.402       .  A
C1117      H1126   1.084       .  S
C1118      C1121   1.442       .  S
C1118      C1119   1.402       .  A
C1119      C1120   1.400       .  A
C1119      H1127   1.084       .  S
C1120      H1128   1.083       .  S
C1121      C1122   1.207       .  T
C1123      C1124   1.207       .  T
C1129      C1137   1.446       .  S
C1129      C1130   1.403       .  A
C1129      C1134   1.402       .  A
C1130      C1131   1.402       .  A
C1130      H1139   1.084       .  S
C1131      C1132   1.403       .  A
C1131      H1140   1.083       .  S
C1132      C1135   1.446       .  S
C1132      C1133   1.402       .  A
C1133      C1134   1.401       .  A
C1133      H1141   1.083       .  S
C1134      H1142   1.084       .  S
C1135      C1136   1.210       .  T
C1137      C1138   1.210       .  T
C1143      C1151   1.441       .  S
C1143      C1144   1.402       .  A
C1143      C1148   1.401       .  A
C1144      C1145   1.400       .  A
C1144      H1153   1.083       .  S
C1145      C1146   1.402       .  A
C1145      H1154   1.083       .  S
C1146      C1149   1.441       .  S
C1146      C1147   1.401       .  A
C1147      C1148   1.400       .  A
C1147      H1155   1.084       .  S
C1148      H1156   1.083       .  S
C1149      C1150   1.207       .  T
C1151      C1152   1.207       .  T
C1157      C1165   1.445       .  S
C1157      C1158   1.402       .  A
C1157      C1162   1.403       .  A
C1158      C1159   1.402       .  A
C1158      H1167   1.084       .  S
C1159      C1160   1.403       .  A
C1159      H1168   1.083       .  S
C1160      C1163   1.445       .  S
C1160      C1161   1.402       .  A
C1161      C1162   1.400       .  A
C1161      H1169   1.084       .  S
C1162      H1170   1.083       .  S
C1163      C1164   1.209       .  T
C1165      C1166   1.209       .  T
C1171      C1179   1.442       .  S
C1171      C1172   1.402       .  A
C1171      C1176   1.402       .  A
C1172      C1173   1.400       .  A
C1172      H1181   1.083       .  S
C1173      C1174   1.402       .  A
C1173      H1182   1.084       .  S
C1174      C1177   1.443       .  S
C1174      C1175   1.402       .  A
C1175      C1176   1.400       .  A
C1175      H1183   1.083       .  S
C1176      H1184   1.084       .  S
C1177      C1178   1.208       .  T
C1179      C1180   1.207       .  T
C1185      C1193   1.442       .  S
C1185      C1186   1.402       .  A
C1185      C1190   1.401       .  A
C1186      C1187   1.400       .  A
C1186      H1195   1.083       .  S
C1187      C1188   1.401       .  A
C1187      H1196   1.083       .  S
C1188      C1191   1.442       .  S
C1188      C1189   1.402       .  A
C1189      C1190   1.400       .  A
C1189      H1197   1.083       .  S
C1190      H1198   1.084       .  S
C1191      C1192   1.207       .  T
C1193      C1194   1.207       .  T
C1199      C1207   1.444       .  S
C1199      C1200   1.402       .  A
C1199      C1204   1.402       .  A
C1200      C1201   1.401       .  A
C1200      H1209   1.084       .  S
C1201      C1202   1.402       .  A
C1201      H1210   1.084       .  S
C1202      C1205   1.445       .  S
C1202      C1203   1.402       .  A
C1203      C1204   1.401       .  A
C1203      H1211   1.084       .  S
C1204      H1212   1.083       .  S
C1205      C1206   1.209       .  T
C1207      C1208   1.209       .  T
C1213      C1221   1.441       .  S
C1213      C1214   1.401       .  A
C1213      C1218   1.402   1_655  A
C1214      C1215   1.400       .  A
C1214      H1223   1.083       .  S
C1215      C1216   1.402   1_655  A
C1215      H1224   1.083       .  S
C1216      C1219   1.442       .  S
C1216      C1217   1.401       .  A
C1217      C1218   1.399       .  A
C1217      H1225   1.084       .  S
C1218      H1226   1.083       .  S
C1219      C1220   1.207       .  T
C1221      C1222   1.206       .  T
C1227      C1235   1.441       .  S
C1227      C1228   1.402       .  A
C1227      C1232   1.401   1_565  A
C1228      C1229   1.399       .  A
C1228      H1237   1.084       .  S
C1229      C1230   1.401       .  A
C1229      H1238   1.083       .  S
C1230      C1233   1.440       .  S
C1230      C1231   1.401   1_565  A
C1231      C1232   1.399       .  A
C1231      H1239   1.083       .  S
C1232      H1240   1.083       .  S
C1233      C1234   1.206       .  T
C1235      C1236   1.207       .  T
C1241      C1249   1.440       .  S
C1241      C1242   1.402       .  A
C1241      C1246   1.401       .  A
C1242      C1243   1.400       .  A
C1242      H1251   1.083       .  S
C1243      C1244   1.402       .  A
C1243      H1252   1.083       .  S
C1244      C1247   1.440       .  S
C1244      C1245   1.401       .  A
C1245      C1246   1.398       .  A
C1245      H1253   1.084       .  S
C1246      H1254   1.084       .  S
C1247      C1248   1.206       .  T
C1249      C1250   1.206       .  T
C1255      C1263   1.443       .  S
C1255      C1256   1.401       .  A
C1255      C1260   1.403       .  A
C1256      C1257   1.400       .  A
C1256      H1265   1.084       .  S
C1257      C1258   1.402       .  A
C1257      H1266   1.083       .  S
C1258      C1261   1.443       .  S
C1258      C1259   1.402       .  A
C1259      C1260   1.401       .  A
C1259      H1267   1.084       .  S
C1260      H1268   1.083       .  S
C1261      C1262   1.208       .  T
C1263      C1264   1.208       .  T
C1269      C1277   1.443       .  S
C1269      C1270   1.402       .  A
C1269      C1274   1.402       .  A
C1270      C1271   1.401       .  A
C1270      H1279   1.084       .  S
C1271      C1272   1.402       .  A
C1271      H1280   1.083       .  S
C1272      C1275   1.443       .  S
C1272      C1273   1.402       .  A
C1273      C1274   1.400       .  A
C1273      H1281   1.083       .  S
C1274      H1282   1.084       .  S
C1275      C1276   1.208       .  T
C1277      C1278   1.208       .  T
C1283      C1291   1.441       .  S
C1283      C1284   1.402       .  A
C1283      C1288   1.401       .  A
C1284      C1285   1.400       .  A
C1284      H1293   1.083       .  S
C1285      C1286   1.402       .  A
C1285      H1294   1.083       .  S
C1286      C1289   1.441       .  S
C1286      C1287   1.402       .  A
C1287      C1288   1.399       .  A
C1287      H1295   1.084       .  S
C1288      H1296   1.083       .  S
C1289      C1290   1.207       .  T
C1291      C1292   1.207       .  T
C1297      C1305   1.440       .  S
C1297      C1298   1.402       .  A
C1297      C1302   1.401       .  A
C1298      C1299   1.400       .  A
C1298      H1307   1.083       .  S
C1299      C1300   1.401       .  A
C1299      H1308   1.083       .  S
C1300      C1303   1.440       .  S
C1300      C1301   1.401       .  A
C1301      C1302   1.399       .  A
C1301      H1309   1.084       .  S
C1302      H1310   1.084       .  S
C1303      C1304   1.206       .  T
C1305      C1306   1.206       .  T
C1311      C1319   1.441       .  S
C1311      C1312   1.402       .  A
C1311      C1316   1.401       .  A
C1312      C1313   1.400       .  A
C1312      H1321   1.083       .  S
C1313      C1314   1.401       .  A
C1313      H1322   1.084       .  S
C1314      C1317   1.441       .  S
C1314      C1315   1.402       .  A
C1315      C1316   1.399       .  A
C1315      H1323   1.083       .  S
C1316      H1324   1.083       .  S
C1317      C1318   1.206       .  T
C1319      C1320   1.206       .  T
C1325      C1333   1.440       .  S
C1325      C1326   1.401       .  A
C1325      C1330   1.401       .  A
C1326      C1327   1.400       .  A
C1326      H1335   1.083       .  S
C1327      C1328   1.402       .  A
C1327      H1336   1.084       .  S
C1328      C1331   1.440       .  S
C1328      C1329   1.401       .  A
C1329      C1330   1.399       .  A
C1329      H1337   1.084       .  S
C1330      H1338   1.083       .  S
C1331      C1332   1.206       .  T
C1333      C1334   1.206       .  T
C1339      C1347   1.437       .  S
C1339      C1340   1.401       .  A
C1339      C1344   1.401       .  A
C1340      C1341   1.398       .  A
C1340      H1349   1.084       .  S
C1341      C1342   1.401       .  A
C1341      H1350   1.083       .  S
C1342      C1345   1.437       .  S
C1342      C1343   1.400       .  A
C1343      C1344   1.398       .  A
C1343      H1351   1.083       .  S
C1344      H1352   1.083       .  S
C1345      C1346   1.204       .  T
C1347      C1348   1.204       .  T
C1353      C1361   1.437       .  S
C1353      C1354   1.401   1_565  A
C1353      C1358   1.401       .  A
C1354      C1355   1.398       .  A
C1354      H1363   1.084       .  S
C1355      C1356   1.401   1_545  A
C1355      H1364   1.083       .  S
C1356      C1359   1.437       .  S
C1356      C1357   1.401       .  A
C1357      C1358   1.398       .  A
C1357      H1365   1.083       .  S
C1358      H1366   1.084       .  S
C1359      C1360   1.204       .  T
C1361      C1362   1.204       .  T
C1367      C1375   1.439       .  S
C1367      C1368   1.401       .  A
C1367      C1372   1.401       .  A
C1368      C1369   1.399       .  A
C1368      H1377   1.084       .  S
C1369      C1370   1.401       .  A
C1369      H1378   1.084       .  S
C1370      C1373   1.439       .  S
C1370      C1371   1.401       .  A
C1371      C1372   1.399       .  A
C1371      H1379   1.083       .  S
C1372      H1380   1.083       .  S
C1373      C1374   1.206       .  T
C1375      C1376   1.205       .  T
C1381      C1389   1.441       .  S
C1381      C1382   1.402       .  A
C1381      C1386   1.401       .  A
C1382      C1383   1.400       .  A
C1382      H1391   1.084       .  S
C1383      C1384   1.401       .  A
C1383      H1392   1.084       .  S
C1384      C1387   1.441       .  S
C1384      C1385   1.402       .  A
C1385      C1386   1.399       .  A
C1385      H1393   1.083       .  S
C1386      H1394   1.084       .  S
C1387      C1388   1.206       .  T
C1389      C1390   1.207       .  T
C1395      C1403   1.443       .  S
C1395      C1396   1.402       .  A
C1395      C1400   1.402       .  A
C1396      C1397   1.400       .  A
C1396      H1405   1.084       .  S
C1397      C1398   1.402       .  A
C1397      H1406   1.084       .  S
C1398      C1401   1.443       .  S
C1398      C1399   1.402       .  A
C1399      C1400   1.400       .  A
C1399      H1407   1.083       .  S
C1400      H1408   1.083       .  S
C1401      C1402   1.208       .  T
C1403      C1404   1.208       .  T
C1409      C1417   1.437       .  S
C1409      C1410   1.401       .  A
C1409      C1414   1.401       .  A
C1410      C1411   1.398       .  A
C1410      H1419   1.083       .  S
C1411      C1412   1.401       .  A
C1411      H1420   1.084       .  S
C1412      C1415   1.438       .  S
C1412      C1413   1.401       .  A
C1413      C1414   1.398       .  A
C1413      H1421   1.083       .  S
C1414      H1422   1.083       .  S
C1415      C1416   1.204       .  T
C1417      C1418   1.204       .  T
C1423      C1431   1.439       .  S
C1423      C1424   1.401       .  A
C1423      C1428   1.401       .  A
C1424      C1425   1.399       .  A
C1424      H1433   1.083       .  S
C1425      C1426   1.401       .  A
C1425      H1434   1.084       .  S
C1426      C1429   1.439       .  S
C1426      C1427   1.401       .  A
C1427      C1428   1.399       .  A
C1427      H1435   1.083       .  S
C1428      H1436   1.083       .  S
C1429      C1430   1.206       .  T
C1431      C1432   1.205       .  T
C1437      C1445   1.441       .  S
C1437      C1438   1.401       .  A
C1437      C1442   1.402       .  A
C1438      C1439   1.399       .  A
C1438      H1447   1.083       .  S
C1439      C1440   1.402       .  A
C1439      H1448   1.084       .  S
C1440      C1443   1.441       .  S
C1440      C1441   1.401       .  A
C1441      C1442   1.400       .  A
C1441      H1449   1.083       .  S
C1442      H1450   1.083       .  S
C1443      C1444   1.207       .  T
C1445      C1446   1.206       .  T
C1451      C1459   1.441       .  S
C1451      C1452   1.402       .  A
C1451      C1456   1.401       .  A
C1452      C1453   1.400       .  A
C1452      H1461   1.084       .  S
C1453      C1454   1.401       .  A
C1453      H1462   1.083       .  S
C1454      C1457   1.440       .  S
C1454      C1455   1.402       .  A
C1455      C1456   1.399       .  A
C1455      H1463   1.084       .  S
C1456      H1464   1.083       .  S
C1457      C1458   1.206       .  T
C1459      C1460   1.207       .  T
C1465      C1473   1.440       .  S
C1465      C1466   1.401       .  A
C1465      C1470   1.401       .  A
C1466      C1467   1.398       .  A
C1466      H1475   1.084       .  S
C1467      C1468   1.401       .  A
C1467      H1476   1.084       .  S
C1468      C1471   1.440       .  S
C1468      C1469   1.402       .  A
C1469      C1470   1.400       .  A
C1469      H1477   1.083       .  S
C1470      H1478   1.083       .  S
C1471      C1472   1.206       .  T
C1473      C1474   1.206       .  T
C1479      C1487   1.440       .  S
C1479      C1480   1.401       .  A
C1479      C1484   1.402       .  A
C1480      C1481   1.399       .  A
C1480      H1489   1.083       .  S
C1481      C1482   1.402       .  A
C1481      H1490   1.084       .  S
C1482      C1485   1.440       .  S
C1482      C1483   1.401       .  A
C1483      C1484   1.400       .  A
C1483      H1491   1.084       .  S
C1484      H1492   1.084       .  S
C1485      C1486   1.206       .  T
C1487      C1488   1.206       .  T
C1493      C1501   1.442       .  S
C1493      C1494   1.402       .  A
C1493      C1498   1.401       .  A
C1494      C1495   1.400       .  A
C1494      H1503   1.083       .  S
C1495      C1496   1.401       .  A
C1495      H1504   1.083       .  S
C1496      C1499   1.441       .  S
C1496      C1497   1.402       .  A
C1497      C1498   1.399       .  A
C1497      H1505   1.084       .  S
C1498      H1506   1.084       .  S
C1499      C1500   1.207       .  T
C1501      C1502   1.207       .  T
C1507      C1515   1.442       .  S
C1507      C1508   1.402       .  A
C1507      C1512   1.402       .  A
C1508      C1509   1.401       .  A
C1508      H1517   1.084       .  S
C1509      C1510   1.402       .  A
C1509      H1518   1.084       .  S
C1510      C1513   1.442       .  S
C1510      C1511   1.401       .  A
C1511      C1512   1.399       .  A
C1511      H1519   1.084       .  S
C1512      H1520   1.084       .  S
C1513      C1514   1.208       .  T
C1515      C1516   1.207       .  T
C1521      C1529   1.441       .  S
C1521      C1522   1.401       .  A
C1521      C1526   1.402       .  A
C1522      C1523   1.399       .  A
C1522      H1531   1.083       .  S
C1523      C1524   1.401       .  A
C1523      H1532   1.084       .  S
C1524      C1527   1.440       .  S
C1524      C1525   1.402       .  A
C1525      C1526   1.399       .  A
C1525      H1533   1.083       .  S
C1526      H1534   1.084       .  S
C1527      C1528   1.206       .  T
C1529      C1530   1.207       .  T
C1535      C1543   1.438       .  S
C1535      C1536   1.401       .  A
C1535      C1540   1.401   1_556  A
C1536      C1537   1.398       .  A
C1536      H1545   1.083       .  S
C1537      C1538   1.401       .  A
C1537      H1546   1.083       .  S
C1538      C1541   1.437       .  S
C1538      C1539   1.401   1_556  A
C1539      C1540   1.398       .  A
C1539      H1547   1.083       .  S
C1540      H1548   1.083       .  S
C1541      C1542   1.204       .  T
C1543      C1544   1.205       .  T
C1549      C1557   1.442       .  S
C1549      C1550   1.402       .  A
C1549      C1554   1.402       .  A
C1550      C1551   1.400       .  A
C1550      H1559   1.083   1_565  S
C1551      C1552   1.401       .  A
C1551      H1560   1.083   1_565  S
C1552      C1555   1.441       .  S
C1552      C1553   1.402       .  A
C1553      C1554   1.400       .  A
C1553      H1561   1.083       .  S
C1554      H1562   1.083       .  S
C1555      C1556   1.207       .  T
C1557      C1558   1.208       .  T
C1563      C1571   1.441       .  S
C1563      C1564   1.402       .  A
C1563      C1568   1.402   1_565  A
C1564      C1565   1.399       .  A
C1564      H1573   1.084       .  S
C1565      C1566   1.401       .  A
C1565      H1574   1.084       .  S
C1566      C1569   1.441       .  S
C1566      C1567   1.402   1_565  A
C1567      C1568   1.400       .  A
C1567      H1575   1.083       .  S
C1568      H1576   1.083       .  S
C1569      C1570   1.206       .  T
C1571      C1572   1.207       .  T
C1577      C1585   1.437       .  S
C1577      C1578   1.401       .  A
C1577      C1582   1.401       .  A
C1578      C1579   1.398       .  A
C1578      H1587   1.084       .  S
C1579      C1580   1.400       .  A
C1579      H1588   1.083       .  S
C1580      C1583   1.437       .  S
C1580      C1581   1.401       .  A
C1581      C1582   1.399       .  A
C1581      H1589   1.083       .  S
C1582      H1590   1.083       .  S
C1583      C1584   1.205       .  T
C1585      C1586   1.205       .  T
C1591      C1599   1.441       .  S
C1591      C1592   1.402       .  A
C1591      C1596   1.401       .  A
C1592      C1593   1.400       .  A
C1592      H1601   1.084       .  S
C1593      C1594   1.402       .  A
C1593      H1602   1.083       .  S
C1594      C1597   1.441       .  S
C1594      C1595   1.401       .  A
C1595      C1596   1.399       .  A
C1595      H1603   1.084       .  S
C1596      H1604   1.084       .  S
C1597      C1598   1.207       .  T
C1599      C1600   1.207       .  T
C1605      C1613   1.443       .  S
C1605      C1606   1.402       .  A
C1605      C1610   1.402       .  A
C1606      C1607   1.399       .  A
C1606      H1615   1.084       .  S
C1607      C1608   1.401       .  A
C1607      H1616   1.083       .  S
C1608      C1611   1.443       .  S
C1608      C1609   1.403       .  A
C1609      C1610   1.401       .  A
C1609      H1617   1.084       .  S
C1610      H1618   1.083       .  S
C1611      C1612   1.208       .  T
C1613      C1614   1.207       .  T
C1619      C1627   1.440       .  S
C1619      C1620   1.401       .  A
C1619      C1624   1.401       .  A
C1620      C1621   1.399       .  A
C1620      H1629   1.083       .  S
C1621      C1622   1.401       .  A
C1621      H1630   1.083       .  S
C1622      C1625   1.440       .  S
C1622      C1623   1.401       .  A
C1623      C1624   1.399       .  A
C1623      H1631   1.084       .  S
C1624      H1632   1.084       .  S
C1625      C1626   1.206       .  T
C1627      C1628   1.206       .  T
C1633      C1641   1.441       .  S
C1633      C1634   1.402       .  A
C1633      C1638   1.401       .  A
C1634      C1635   1.399       .  A
C1634      H1643   1.083       .  S
C1635      C1636   1.401       .  A
C1635      H1644   1.084       .  S
C1636      C1639   1.442       .  S
C1636      C1637   1.402       .  A
C1637      C1638   1.400       .  A
C1637      H1645   1.083       .  S
C1638      H1646   1.084       .  S
C1639      C1640   1.207       .  T
C1641      C1642   1.206       .  T
C1647      C1655   1.441       .  S
C1647      C1648   1.402       .  A
C1647      C1652   1.401       .  A
C1648      C1649   1.399       .  A
C1648      H1657   1.083       .  S
C1649      C1650   1.401       .  A
C1649      H1658   1.083       .  S
C1650      C1653   1.441       .  S
C1650      C1651   1.402       .  A
C1651      C1652   1.399       .  A
C1651      H1659   1.083       .  S
C1652      H1660   1.083       .  S
C1653      C1654   1.207       .  T
C1655      C1656   1.206       .  T
C1661      C1669   1.441       .  S
C1661      C1662   1.402       .  A
C1661      C1666   1.401       .  A
C1662      C1663   1.400       .  A
C1662      H1671   1.083       .  S
C1663      C1664   1.402       .  A
C1663      H1672   1.083       .  S
C1664      C1667   1.442       .  S
C1664      C1665   1.401       .  A
C1665      C1666   1.399       .  A
C1665      H1673   1.083       .  S
C1666      H1674   1.084       .  S
C1667      C1668   1.207       .  T
C1669      C1670   1.206       .  T
C1675      C1683   1.441       .  S
C1675      C1676   1.402       .  A
C1675      C1680   1.402       .  A
C1676      C1677   1.401       .  A
C1676      H1685   1.083       .  S
C1677      C1678   1.402       .  A
C1677      H1686   1.084       .  S
C1678      C1681   1.441       .  S
C1678      C1679   1.401       .  A
C1679      C1680   1.398       .  A
C1679      H1687   1.084       .  S
C1680      H1688   1.083       .  S
C1681      C1682   1.207       .  T
C1683      C1684   1.206       .  T
C1689      C1697   1.440       .  S
C1689      C1690   1.401       .  A
C1689      C1694   1.401   1_455  A
C1690      C1691   1.399       .  A
C1690      H1699   1.084       .  S
C1691      C1692   1.401       .  A
C1691      H1700   1.084       .  S
C1692      C1695   1.441       .  S
C1692      C1693   1.402   1_455  A
C1693      C1694   1.400       .  A
C1693      H1701   1.083       .  S
C1694      H1702   1.084       .  S
C1695      C1696   1.207       .  T
C1697      C1698   1.206       .  T
C1703      C1711   1.441       .  S
C1703      C1704   1.401       .  A
C1703      C1708   1.402       .  A
C1704      C1705   1.399       .  A
C1704      H1713   1.083       .  S
C1705      C1706   1.401       .  A
C1705      H1714   1.084       .  S
C1706      C1709   1.441       .  S
C1706      C1707   1.402       .  A
C1707      C1708   1.400       .  A
C1707      H1715   1.083       .  S
C1708      H1716   1.083       .  S
C1709      C1710   1.207       .  T
C1711      C1712   1.206       .  T
C1717      C1725   1.441       .  S
C1717      C1718   1.401       .  A
C1717      C1722   1.401       .  A
C1718      C1719   1.400       .  A
C1718      H1727   1.083       .  S
C1719      C1720   1.402       .  A
C1719      H1728   1.083       .  S
C1720      C1723   1.441       .  S
C1720      C1721   1.401       .  A
C1721      C1722   1.399       .  A
C1721      H1729   1.084       .  S
C1722      H1730   1.084       .  S
C1723      C1724   1.207       .  T
C1725      C1726   1.206       .  T
C1731      C1739   1.439       .  S
C1731      C1732   1.402       .  A
C1731      C1736   1.401       .  A
C1732      C1733   1.399       .  A
C1732      H1741   1.083       .  S
C1733      C1734   1.401       .  A
C1733      H1742   1.083       .  S
C1734      C1737   1.440       .  S
C1734      C1735   1.401       .  A
C1735      C1736   1.399       .  A
C1735      H1743   1.084       .  S
C1736      H1744   1.083       .  S
C1737      C1738   1.206       .  T
C1739      C1740   1.205       .  T
C1745      C1753   1.439       .  S
C1745      C1746   1.401       .  A
C1745      C1750   1.401       .  A
C1746      C1747   1.399       .  A
C1746      H1755   1.084       .  S
C1747      C1748   1.402       .  A
C1747      H1756   1.083       .  S
C1748      C1751   1.440       .  S
C1748      C1749   1.401       .  A
C1749      C1750   1.399       .  A
C1749      H1757   1.083       .  S
C1750      H1758   1.083       .  S
C1751      C1752   1.206       .  T
C1753      C1754   1.205       .  T
C1759      C1767   1.439       .  S
C1759      C1760   1.401       .  A
C1759      C1764   1.401       .  A
C1760      C1761   1.398       .  A
C1760      H1769   1.084       .  S
C1761      C1762   1.401       .  A
C1761      H1770   1.084       .  S
C1762      C1765   1.439       .  S
C1762      C1763   1.402       .  A
C1763      C1764   1.399       .  A
C1763      H1771   1.083       .  S
C1764      H1772   1.083       .  S
C1765      C1766   1.206       .  T
C1767      C1768   1.205       .  T
C1773      C1781   1.442       .  S
C1773      C1774   1.401       .  A
C1773      C1778   1.402       .  A
C1774      C1775   1.400       .  A
C1774      H1783   1.083       .  S
C1775      C1776   1.402       .  A
C1775      H1784   1.084       .  S
C1776      C1779   1.442       .  S
C1776      C1777   1.401       .  A
C1777      C1778   1.400       .  A
C1777      H1785   1.083       .  S
C1778      H1786   1.084       .  S
C1779      C1780   1.207       .  T
C1781      C1782   1.207       .  T
C1787      C1795   1.443       .  S
C1787      C1788   1.402       .  A
C1787      C1792   1.402       .  A
C1788      C1789   1.400       .  A
C1788      H1797   1.083       .  S
C1789      C1790   1.401       .  A
C1789      H1798   1.084       .  S
C1790      C1793   1.442       .  S
C1790      C1791   1.402       .  A
C1791      C1792   1.400       .  A
C1791      H1799   1.083       .  S
C1792      H1800   1.084       .  S
C1793      C1794   1.207       .  T
C1795      C1796   1.208       .  T
C1801      C1809   1.445       .  S
C1801      C1802   1.402       .  A
C1801      C1806   1.402       .  A
C1802      C1803   1.401       .  A
C1802      H1811   1.084       .  S
C1803      C1804   1.402       .  A
C1803      H1812   1.084       .  S
C1804      C1807   1.445       .  S
C1804      C1805   1.403       .  A
C1805      C1806   1.401       .  A
C1805      H1813   1.084       .  S
C1806      H1814   1.084       .  S
C1807      C1808   1.209       .  T
C1809      C1810   1.209       .  T
C1815      C1823   1.442       .  S
C1815      C1816   1.402       .  A
C1815      C1820   1.401       .  A
C1816      C1817   1.400       .  A
C1816      H1825   1.084       .  S
C1817      C1818   1.401       .  A
C1817      H1826   1.083       .  S
C1818      C1821   1.442       .  S
C1818      C1819   1.402       .  A
C1819      C1820   1.400       .  A
C1819      H1827   1.084       .  S
C1820      H1828   1.084       .  S
C1821      C1822   1.207       .  T
C1823      C1824   1.208       .  T
C1829      C1837   1.440       .  S
C1829      C1830   1.402       .  A
C1829      C1834   1.401       .  A
C1830      C1831   1.399       .  A
C1830      H1839   1.084       .  S
C1831      C1832   1.401       .  A
C1831      H1840   1.083       .  S
C1832      C1835   1.440       .  S
C1832      C1833   1.402       .  A
C1833      C1834   1.399       .  A
C1833      H1841   1.083       .  S
C1834      H1842   1.083       .  S
C1835      C1836   1.206       .  T
C1837      C1838   1.206       .  T
C1843      C1851   1.442       .  S
C1843      C1844   1.402       .  A
C1843      C1848   1.401       .  A
C1844      C1845   1.400       .  A
C1844      H1853   1.083       .  S
C1845      C1846   1.402       .  A
C1845      H1854   1.084       .  S
C1846      C1849   1.442       .  S
C1846      C1847   1.401       .  A
C1847      C1848   1.399       .  A
C1847      H1855   1.083       .  S
C1848      H1856   1.084       .  S
C1849      C1850   1.207       .  T
C1851      C1852   1.207       .  T
C1857      C1865   1.440       .  S
C1857      C1858   1.402       .  A
C1857      C1862   1.401       .  A
C1858      C1859   1.399       .  A
C1858      H1867   1.083       .  S
C1859      C1860   1.401       .  A
C1859      H1868   1.083       .  S
C1860      C1863   1.440       .  S
C1860      C1861   1.402       .  A
C1861      C1862   1.399       .  A
C1861      H1869   1.084       .  S
C1862      H1870   1.083       .  S
C1863      C1864   1.206       .  T
C1865      C1866   1.206       .  T
C1871      C1879   1.440       .  S
C1871      C1872   1.402       .  A
C1871      C1876   1.401       .  A
C1872      C1873   1.399       .  A
C1872      H1881   1.083       .  S
C1873      C1874   1.401       .  A
C1873      H1882   1.084       .  S
C1874      C1877   1.440       .  S
C1874      C1875   1.402       .  A
C1875      C1876   1.399       .  A
C1875      H1883   1.083       .  S
C1876      H1884   1.083       .  S
C1877      C1878   1.206       .  T
C1879      C1880   1.206       .  T
C1885      C1893   1.440       .  S
C1885      C1886   1.401       .  A
C1885      C1890   1.401       .  A
C1886      C1887   1.399       .  A
C1886      H1895   1.084       .  S
C1887      C1888   1.401       .  A
C1887      H1896   1.083       .  S
C1888      C1891   1.440       .  S
C1888      C1889   1.401       .  A
C1889      C1890   1.399       .  A
C1889      H1897   1.084       .  S
C1890      H1898   1.083       .  S
C1891      C1892   1.206       .  T
C1893      C1894   1.206       .  T
C1899      C1907   1.443       .  S
C1899      C1900   1.402       .  A
C1899      C1904   1.402       .  A
C1900      C1901   1.399       .  A
C1900      H1909   1.084       .  S
C1901      C1902   1.401       .  A
C1901      H1910   1.084       .  S
C1902      C1905   1.443       .  S
C1902      C1903   1.403       .  A
C1903      C1904   1.401       .  A
C1903      H1911   1.083       .  S
C1904      H1912   1.083       .  S
C1905      C1906   1.208       .  T
C1907      C1908   1.208       .  T
C1913      C1921   1.440       .  S
C1913      C1914   1.402   1_556  A
C1913      C1918   1.401       .  A
C1914      C1915   1.399       .  A
C1914      H1923   1.083       .  S
C1915      C1916   1.401       .  A
C1915      H1924   1.083       .  S
C1916      C1919   1.440       .  S
C1916      C1917   1.402   1_554  A
C1917      C1918   1.399       .  A
C1917      H1925   1.084       .  S
C1918      H1926   1.083       .  S
C1919      C1920   1.206       .  T
C1921      C1922   1.206       .  T
C1927      C1935   1.441       .  S
C1927      C1928   1.401       .  A
C1927      C1932   1.402       .  A
C1928      C1929   1.399       .  A
C1928      H1937   1.084       .  S
C1929      C1930   1.402       .  A
C1929      H1938   1.083       .  S
C1930      C1933   1.441       .  S
C1930      C1931   1.401       .  A
C1931      C1932   1.399       .  A
C1931      H1939   1.083       .  S
C1932      H1940   1.083       .  S
C1933      C1934   1.206       .  T
C1935      C1936   1.206       .  T
C1941      C1949   1.442       .  S
C1941      C1942   1.401       .  A
C1941      C1946   1.402       .  A
C1942      C1943   1.399       .  A
C1942      H1951   1.084       .  S
C1943      C1944   1.402       .  A
C1943      H1952   1.083       .  S
C1944      C1947   1.442       .  S
C1944      C1945   1.402       .  A
C1945      C1946   1.401       .  A
C1945      H1953   1.084       .  S
C1946      H1954   1.083       .  S
C1947      C1948   1.207       .  T
C1949      C1950   1.208       .  T
C1955      C1963   1.440       .  S
C1955      C1956   1.402   1_556  A
C1955      C1960   1.401       .  A
C1956      C1957   1.400       .  A
C1956      H1965   1.083       .  S
C1957      C1958   1.401       .  A
C1957      H1966   1.083       .  S
C1958      C1961   1.440       .  S
C1958      C1959   1.401   1_554  A
C1959      C1960   1.399       .  A
C1959      H1967   1.083       .  S
C1960      H1968   1.084       .  S
C1961      C1962   1.206       .  T
C1963      C1964   1.206       .  T
C1969      C1977   1.440       .  S
C1969      C1970   1.401   1_455  A
C1969      C1974   1.402       .  A
C1970      C1971   1.399       .  A
C1970      H1979   1.085       .  S
C1971      C1972   1.402   1_655  A
C1971      H1980   1.082       .  S
C1972      C1975   1.439       .  S
C1972      C1973   1.401       .  A
C1973      C1974   1.399       .  A
C1973      H1981   1.085   1_556  S
C1974      H1982   1.082       .  S
C1975      C1976   1.205       .  T
C1977      C1978   1.206       .  T
C1983      C1991   1.440       .  S
C1983      C1984   1.401       .  A
C1983      C1988   1.402       .  A
C1984      C1985   1.399       .  A
C1984      H1993   1.084   1_455  S
C1985      C1986   1.401       .  A
C1985      H1994   1.083       .  S
C1986      C1989   1.439       .  S
C1986      C1987   1.401       .  A
C1987      C1988   1.399       .  A
C1987      H1995   1.083       .  S
C1988      H1996   1.083       .  S
C1989      C1990   1.205       .  T
C1991      C1992   1.206       .  T
C1997      C2005   1.440       .  S
C1997      C1998   1.401       .  A
C1997      C2002   1.401       .  A
C1998      C1999   1.400       .  A
C1998      H2007   1.083       .  S
C1999      C2000   1.402       .  A
C1999      H2008   1.083       .  S
C2000      C2003   1.440       .  S
C2000      C2001   1.401       .  A
C2001      C2002   1.399       .  A
C2001      H2009   1.083       .  S
C2002      H2010   1.084       .  S
C2003      C2004   1.206       .  T
C2005      C2006   1.206       .  T
C2011      C2019   1.443       .  S
C2011      C2012   1.402       .  A
C2011      C2016   1.401       .  A
C2012      C2013   1.401       .  A
C2012      H2021   1.083       .  S
C2013      C2014   1.402       .  A
C2013      H2022   1.083       .  S
C2014      C2017   1.443       .  S
C2014      C2015   1.402       .  A
C2015      C2016   1.400       .  A
C2015      H2023   1.084       .  S
C2016      H2024   1.084       .  S
C2017      C2018   1.208       .  T
C2019      C2020   1.208       .  T
C2025      C2033   1.441       .  S
C2025      C2026   1.401       .  A
C2025      C2030   1.402   1_565  A
C2026      C2027   1.400       .  A
C2026      H2035   1.083       .  S
C2027      C2028   1.402       .  A
C2027      H2036   1.083       .  S
C2028      C2031   1.441       .  S
C2028      C2029   1.401   1_565  A
C2029      C2030   1.399       .  A
C2029      H2037   1.084       .  S
C2030      H2038   1.084       .  S
C2031      C2032   1.206       .  T
C2033      C2034   1.207       .  T
C2039      C2047   1.438       .  S
C2039      C2040   1.402   1_565  A
C2039      C2044   1.401       .  A
C2040      C2041   1.399       .  A
C2040      H2049   1.083       .  S
C2041      C2042   1.401   1_545  A
C2041      H2050   1.083       .  S
C2042      C2045   1.438       .  S
C2042      C2043   1.401       .  A
C2043      C2044   1.398       .  A
C2043      H2051   1.084       .  S
C2044      H2052   1.083       .  S
C2045      C2046   1.205       .  T
C2047      C2048   1.205       .  T
C2053      C2061   1.442       .  S
C2053      C2054   1.402       .  A
C2053      C2058   1.402       .  A
C2054      C2055   1.400       .  A
C2054      H2063   1.084       .  S
C2055      C2056   1.401       .  A
C2055      H2064   1.083       .  S
C2056      C2059   1.442       .  S
C2056      C2057   1.402       .  A
C2057      C2058   1.400       .  A
C2057      H2065   1.083       .  S
C2058      H2066   1.083       .  S
C2059      C2060   1.207       .  T
C2061      C2062   1.207       .  T
C2067      C2075   1.444       .  S
C2067      C2068   1.402       .  A
C2067      C2072   1.402       .  A
C2068      C2069   1.401       .  A
C2068      H2077   1.083       .  S
C2069      C2070   1.402       .  A
C2069      H2078   1.084       .  S
C2070      C2073   1.444       .  S
C2070      C2071   1.402       .  A
C2071      C2072   1.401       .  A
C2071      H2079   1.083       .  S
C2072      H2080   1.083       .  S
C2073      C2074   1.208       .  T
C2075      C2076   1.208       .  T
C2081      C2089   1.439       .  S
C2081      C2082   1.401   1_556  A
C2081      C2086   1.402       .  A
C2082      C2083   1.398       .  A
C2082      H2091   1.083       .  S
C2083      C2084   1.401   1_554  A
C2083      H2092   1.084       .  S
C2084      C2087   1.439       .  S
C2084      C2085   1.401       .  A
C2085      C2086   1.399       .  A
C2085      H2093   1.083       .  S
C2086      H2094   1.083       .  S
C2087      C2088   1.205       .  T
C2089      C2090   1.206       .  T
C2095      C2103   1.441       .  S
C2095      C2096   1.401       .  A
C2095      C2100   1.402       .  A
C2096      C2097   1.399       .  A
C2096      H2105   1.083       .  S
C2097      C2098   1.402       .  A
C2097      H2106   1.083       .  S
C2098      C2101   1.440       .  S
C2098      C2099   1.401       .  A
C2099      C2100   1.399       .  A
C2099      H2107   1.084       .  S
C2100      H2108   1.083       .  S
C2101      C2102   1.206       .  T
C2103      C2104   1.206       .  T
C2109      C2117   1.439       .  S
C2109      C2110   1.401       .  A
C2109      C2114   1.401   1_455  A
C2110      C2111   1.399       .  A
C2110      H2119   1.083       .  S
C2111      C2112   1.401       .  A
C2111      H2120   1.084       .  S
C2112      C2115   1.439       .  S
C2112      C2113   1.401   1_455  A
C2113      C2114   1.399       .  A
C2113      H2121   1.083       .  S
C2114      H2122   1.083       .  S
C2115      C2116   1.205       .  T
C2117      C2118   1.206       .  T
C2123      C2131   1.438       .  S
C2123      C2124   1.401       .  A
C2123      C2128   1.401   1_455  A
C2124      C2125   1.398       .  A
C2124      H2133   1.083       .  S
C2125      C2126   1.401       .  A
C2125      H2134   1.084       .  S
C2126      C2129   1.438       .  S
C2126      C2127   1.401   1_455  A
C2127      C2128   1.399       .  A
C2127      H2135   1.083       .  S
C2128      H2136   1.083       .  S
C2129      C2130   1.205       .  T
C2131      C2132   1.205       .  T
C2137      C2145   1.439       .  S
C2137      C2138   1.402       .  A
C2137      C2142   1.401       .  A
C2138      C2139   1.399       .  A
C2138      H2147   1.083       .  S
C2139      C2140   1.401       .  A
C2139      H2148   1.083       .  S
C2140      C2143   1.440       .  S
C2140      C2141   1.401       .  A
C2141      C2142   1.399       .  A
C2141      H2149   1.084       .  S
C2142      H2150   1.083       .  S
C2143      C2144   1.206       .  T
C2145      C2146   1.206       .  T
C2151      C2159   1.438       .  S
C2151      C2152   1.401       .  A
C2151      C2156   1.401       .  A
C2152      C2153   1.399       .  A
C2152      H2161   1.083       .  S
C2153      C2154   1.401       .  A
C2153      H2162   1.083       .  S
C2154      C2157   1.439       .  S
C2154      C2155   1.401       .  A
C2155      C2156   1.398       .  A
C2155      H2163   1.084       .  S
C2156      H2164   1.084       .  S
C2157      C2158   1.205       .  T
C2159      C2160   1.205       .  T
C2165      C2173   1.443       .  S
C2165      C2166   1.401       .  A
C2165      C2170   1.403       .  A
C2166      C2167   1.399       .  A
C2166      H2175   1.084       .  S
C2167      C2168   1.402       .  A
C2167      H2176   1.084       .  S
C2168      C2171   1.443       .  S
C2168      C2169   1.402       .  A
C2169      C2170   1.401       .  A
C2169      H2177   1.083       .  S
C2170      H2178   1.083       .  S
C2171      C2172   1.208       .  T
C2173      C2174   1.208       .  T
C2179      C2187   1.441       .  S
C2179      C2180   1.402       .  A
C2179      C2184   1.401       .  A
C2180      C2181   1.400       .  A
C2180      H2189   1.083       .  S
C2181      C2182   1.401       .  A
C2181      H2190   1.083       .  S
C2182      C2185   1.441       .  S
C2182      C2183   1.402       .  A
C2183      C2184   1.399       .  A
C2183      H2191   1.084       .  S
C2184      H2192   1.083       .  S
C2185      C2186   1.206       .  T
C2187      C2188   1.207       .  T
C2193      C2201   1.440       .  S
C2193      C2194   1.400       .  A
C2193      C2198   1.402       .  A
C2194      C2195   1.398       .  A
C2194      H2203   1.084       .  S
C2195      C2196   1.401       .  A
C2195      H2204   1.084       .  S
C2196      C2199   1.440       .  S
C2196      C2197   1.402       .  A
C2197      C2198   1.401       .  A
C2197      H2205   1.083       .  S
C2198      H2206   1.083       .  S
C2199      C2200   1.206       .  T
C2201      C2202   1.206       .  T
C2207      C2215   1.439       .  S
C2207      C2208   1.401   1_556  A
C2207      C2212   1.401       .  A
C2208      C2209   1.399       .  A
C2208      H2217   1.084       .  S
C2209      C2210   1.401   1_554  A
C2209      H2218   1.083       .  S
C2210      C2213   1.440       .  S
C2210      C2211   1.401       .  A
C2211      C2212   1.399       .  A
C2211      H2219   1.084       .  S
C2212      H2220   1.083       .  S
C2213      C2214   1.206       .  T
C2215      C2216   1.205       .  T
C2221      C2229   1.438       .  S
C2221      C2222   1.401       .  A
C2221      C2226   1.401   1_556  A
C2222      C2223   1.398       .  A
C2222      H2231   1.083       .  S
C2223      C2224   1.401       .  A
C2223      H2232   1.083       .  S
C2224      C2227   1.437       .  S
C2224      C2225   1.401   1_556  A
C2225      C2226   1.398       .  A
C2225      H2233   1.083       .  S
C2226      H2234   1.084       .  S
C2227      C2228   1.204       .  T
C2229      C2230   1.204       .  T
C2235      C2243   1.437       .  S
C2235      C2236   1.401       .  A
C2235      C2240   1.401   1_556  A
C2236      C2237   1.398       .  A
C2236      H2245   1.084       .  S
C2237      C2238   1.401       .  A
C2237      H2246   1.083       .  S
C2238      C2241   1.437       .  S
C2238      C2239   1.401   1_556  A
C2239      C2240   1.398       .  A
C2239      H2247   1.084       .  S
C2240      H2248   1.083       .  S
C2241      C2242   1.204       .  T
C2243      C2244   1.204       .  T
C2249      C2257   1.440       .  S
C2249      C2250   1.401       .  A
C2249      C2254   1.401       .  A
C2250      C2251   1.399       .  A
C2250      H2259   1.084       .  S
C2251      C2252   1.401       .  A
C2251      H2260   1.083       .  S
C2252      C2255   1.440       .  S
C2252      C2253   1.402       .  A
C2253      C2254   1.400       .  A
C2253      H2261   1.084       .  S
C2254      H2262   1.083       .  S
C2255      C2256   1.206       .  T
C2257      C2258   1.206       .  T
C2263      C2271   1.441       .  S
C2263      C2264   1.402   1_556  A
C2263      C2268   1.401       .  A
C2264      C2265   1.400       .  A
C2264      H2273   1.083       .  S
C2265      C2266   1.401       .  A
C2265      H2274   1.083       .  S
C2266      C2269   1.441       .  S
C2266      C2267   1.402   1_554  A
C2267      C2268   1.399       .  A
C2267      H2275   1.083       .  S
C2268      H2276   1.083       .  S
C2269      C2270   1.206       .  T
C2271      C2272   1.206       .  T
C2277      C2285   1.439       .  S
C2277      C2278   1.401       .  A
C2277      C2282   1.401   1_554  A
C2278      C2279   1.399       .  A
C2278      H2287   1.083       .  S
C2279      C2280   1.402   1_554  A
C2279      H2288   1.083       .  S
C2280      C2283   1.440       .  S
C2280      C2281   1.401       .  A
C2281      C2282   1.399       .  A
C2281      H2289   1.083       .  S
C2282      H2290   1.083       .  S
C2283      C2284   1.206       .  T
C2285      C2286   1.205       .  T
C2291      C2299   1.443       .  S
C2291      C2292   1.402       .  A
C2291      C2296   1.402       .  A
C2292      C2293   1.401       .  A
C2292      H2301   1.083       .  S
C2293      C2294   1.403       .  A
C2293      H2302   1.083       .  S
C2294      C2297   1.443       .  S
C2294      C2295   1.401       .  A
C2295      C2296   1.400       .  A
C2295      H2303   1.084       .  S
C2296      H2304   1.084       .  S
C2297      C2298   1.208       .  T
C2299      C2300   1.208       .  T
C2305      C2313   1.441       .  S
C2305      C2306   1.401       .  A
C2305      C2310   1.402       .  A
C2306      C2307   1.399       .  A
C2306      H2315   1.083       .  S
C2307      C2308   1.402       .  A
C2307      H2316   1.083       .  S
C2308      C2311   1.440       .  S
C2308      C2309   1.401       .  A
C2309      C2310   1.399       .  A
C2309      H2317   1.083       .  S
C2310      H2318   1.084       .  S
C2311      C2312   1.206       .  T
C2313      C2314   1.206       .  T
C2319      C2327   1.444       .  S
C2319      C2320   1.402       .  A
C2319      C2324   1.402       .  A
C2320      C2321   1.400       .  A
C2320      H2329   1.084       .  S
C2321      C2322   1.402       .  A
C2321      H2330   1.083       .  S
C2322      C2325   1.443       .  S
C2322      C2323   1.402       .  A
C2323      C2324   1.400       .  A
C2323      H2331   1.083       .  S
C2324      H2332   1.083       .  S
C2325      C2326   1.208       .  T
C2327      C2328   1.208       .  T
C2333      C2341   1.443       .  S
C2333      C2334   1.402       .  A
C2333      C2338   1.401       .  A
C2334      C2335   1.401       .  A
C2334      H2343   1.083       .  S
C2335      C2336   1.402       .  A
C2335      H2344   1.083       .  S
C2336      C2339   1.443       .  S
C2336      C2337   1.402       .  A
C2337      C2338   1.400       .  A
C2337      H2345   1.084       .  S
C2338      H2346   1.084       .  S
C2339      C2340   1.208       .  T
C2341      C2342   1.208       .  T
C2347      C2355   1.441       .  S
C2347      C2348   1.402       .  A
C2347      C2352   1.401       .  A
C2348      C2349   1.399       .  A
C2348      H2357   1.083       .  S
C2349      C2350   1.401       .  A
C2349      H2358   1.084       .  S
C2350      C2353   1.442       .  S
C2350      C2351   1.402       .  A
C2351      C2352   1.400       .  A
C2351      H2359   1.083       .  S
C2352      H2360   1.083       .  S
C2353      C2354   1.207       .  T
C2355      C2356   1.206       .  T
C2361      C2369   1.438       .  S
C2361      C2362   1.401       .  A
C2361      C2366   1.401       .  A
C2362      C2363   1.399       .  A
C2362      H2371   1.084       .  S
C2363      C2364   1.401       .  A
C2363      H2372   1.083       .  S
C2364      C2367   1.438       .  S
C2364      C2365   1.401       .  A
C2365      C2366   1.398       .  A
C2365      H2373   1.084       .  S
C2366      H2374   1.083       .  S
C2367      C2368   1.205       .  T
C2369      C2370   1.205       .  T
C2375      C2383   1.439       .  S
C2375      C2376   1.401       .  A
C2375      C2380   1.402       .  A
C2376      C2377   1.398       .  A
C2376      H2385   1.084       .  S
C2377      C2378   1.401       .  A
C2377      H2386   1.084       .  S
C2378      C2381   1.439       .  S
C2378      C2379   1.401       .  A
C2379      C2380   1.399       .  A
C2379      H2387   1.083       .  S
C2380      H2388   1.083       .  S
C2381      C2382   1.205       .  T
C2383      C2384   1.205       .  T
C2389      C2397   1.444       .  S
C2389      C2390   1.402       .  A
C2389      C2394   1.402       .  A
C2390      C2391   1.401       .  A
C2390      H2399   1.083       .  S
C2391      C2392   1.403       .  A
C2391      H2400   1.083       .  S
C2392      C2395   1.444       .  S
C2392      C2393   1.401       .  A
C2393      C2394   1.400       .  A
C2393      H2401   1.084       .  S
C2394      H2402   1.084       .  S
C2395      C2396   1.209       .  T
C2397      C2398   1.208       .  T
C2403      C2411   1.439       .  S
C2403      C2404   1.401       .  A
C2403      C2408   1.401       .  A
C2404      C2405   1.399       .  A
C2404      H2413   1.084       .  S
C2405      C2406   1.401       .  A
C2405      H2414   1.083       .  S
C2406      C2409   1.440       .  S
C2406      C2407   1.402       .  A
C2407      C2408   1.399       .  A
C2407      H2415   1.084       .  S
C2408      H2416   1.083       .  S
C2409      C2410   1.206       .  T
C2411      C2412   1.206       .  T
C2417      C2425   1.438       .  S
C2417      C2418   1.401       .  A
C2417      C2422   1.401       .  A
C2418      C2419   1.398       .  A
C2418      H2427   1.084       .  S
C2419      C2420   1.401       .  A
C2419      H2428   1.083       .  S
C2420      C2423   1.438       .  S
C2420      C2421   1.401       .  A
C2421      C2422   1.398       .  A
C2421      H2429   1.084       .  S
C2422      H2430   1.083       .  S
C2423      C2424   1.204       .  T
C2425      C2426   1.205       .  T
C2431      C2439   1.440       .  S
C2431      C2432   1.402       .  A
C2431      C2436   1.401       .  A
C2432      C2433   1.399       .  A
C2432      H2441   1.083       .  S
C2433      C2434   1.401       .  A
C2433      H2442   1.083       .  S
C2434      C2437   1.440       .  S
C2434      C2435   1.401       .  A
C2435      C2436   1.399       .  A
C2435      H2443   1.084       .  S
C2436      H2444   1.083       .  S
C2437      C2438   1.206       .  T
C2439      C2440   1.206       .  T
C2445      C2453   1.438       .  S
C2445      C2446   1.401       .  A
C2445      C2450   1.401       .  A
C2446      C2447   1.398       .  A
C2446      H2455   1.083       .  S
C2447      C2448   1.401       .  A
C2447      H2456   1.083       .  S
C2448      C2451   1.438       .  S
C2448      C2449   1.401       .  A
C2449      C2450   1.398       .  A
C2449      H2457   1.084       .  S
C2450      H2458   1.083       .  S
C2451      C2452   1.204       .  T
C2453      C2454   1.205       .  T
C2459      C2467   1.438       .  S
C2459      C2460   1.401       .  A
C2459      C2464   1.401       .  A
C2460      C2461   1.398       .  A
C2460      H2469   1.083       .  S
C2461      C2462   1.401       .  A
C2461      H2470   1.083       .  S
C2462      C2465   1.438       .  S
C2462      C2463   1.401       .  A
C2463      C2464   1.398       .  A
C2463      H2471   1.083       .  S
C2464      H2472   1.084       .  S
C2465      C2466   1.204       .  T
C2467      C2468   1.205       .  T
C2473      C2481   1.440       .  S
C2473      C2474   1.401   1_455  A
C2473      C2478   1.402       .  A
C2474      C2475   1.399       .  A
C2474      H2483   1.082       .  S
C2475      C2476   1.401   1_655  A
C2475      H2484   1.085       .  S
C2476      C2479   1.440   1_565  S
C2476      C2477   1.401   1_565  A
C2477      C2478   1.400   1_545  A
C2477      H2485   1.082       .  S
C2478      H2486   1.085   1_565  S
C2479      C2480   1.206       .  T
C2481      C2482   1.206       .  T
C2487      C2495   1.442       .  S
C2487      C2488   1.401       .  A
C2487      C2492   1.402   1_565  A
C2488      C2489   1.400       .  A
C2488      H2497   1.083       .  S
C2489      C2490   1.402       .  A
C2489      H2498   1.084       .  S
C2490      C2493   1.442   1_565  S
C2490      C2491   1.401   1_565  A
C2491      C2492   1.400       .  A
C2491      H2499   1.083       .  S
C2492      H2500   1.083       .  S
C2493      C2494   1.207       .  T
C2495      C2496   1.207       .  T
C2501      C2509   1.440       .  S
C2501      C2502   1.401   1_455  A
C2501      C2506   1.401       .  A
C2502      C2503   1.399       .  A
C2502      H2511   1.083       .  S
C2503      C2504   1.401   1_655  A
C2503      H2512   1.084       .  S
C2504      C2507   1.440       .  S
C2504      C2505   1.401       .  A
C2505      C2506   1.399       .  A
C2505      H2513   1.083       .  S
C2506      H2514   1.083       .  S
C2507      C2508   1.206       .  T
C2509      C2510   1.206       .  T
C2515      C2523   1.443       .  S
C2515      C2516   1.402       .  A
C2515      C2520   1.402       .  A
C2516      C2517   1.401       .  A
C2516      H2525   1.084       .  S
C2517      C2518   1.402       .  A
C2517      H2526   1.083       .  S
C2518      C2521   1.443       .  S
C2518      C2519   1.402       .  A
C2519      C2520   1.400       .  A
C2519      H2527   1.083       .  S
C2520      H2528   1.083       .  S
C2521      C2522   1.208       .  T
C2523      C2524   1.208       .  T
C2529      C2537   1.440       .  S
C2529      C2530   1.401       .  A
C2529      C2534   1.401       .  A
C2530      C2531   1.399       .  A
C2530      H2539   1.083       .  S
C2531      C2532   1.401       .  A
C2531      H2540   1.084       .  S
C2532      C2535   1.440       .  S
C2532      C2533   1.401       .  A
C2533      C2534   1.399       .  A
C2533      H2541   1.083       .  S
C2534      H2542   1.084       .  S
C2535      C2536   1.206       .  T
C2537      C2538   1.206       .  T
C2543      C2551   1.439       .  S
C2543      C2544   1.402       .  A
C2543      C2548   1.401       .  A
C2544      C2545   1.399       .  A
C2544      H2553   1.084       .  S
C2545      C2546   1.401       .  A
C2545      H2554   1.083       .  S
C2546      C2549   1.439       .  S
C2546      C2547   1.401       .  A
C2547      C2548   1.398       .  A
C2547      H2555   1.084       .  S
C2548      H2556   1.083       .  S
C2549      C2550   1.205       .  T
C2551      C2552   1.206       .  T
C2557      C2565   1.440       .  S
C2557      C2558   1.402       .  A
C2557      C2562   1.401       .  A
C2558      C2559   1.399       .  A
C2558      H2567   1.084       .  S
C2559      C2560   1.401       .  A
C2559      H2568   1.083       .  S
C2560      C2563   1.439       .  S
C2560      C2561   1.401       .  A
C2561      C2562   1.399       .  A
C2561      H2569   1.084       .  S
C2562      H2570   1.083       .  S
C2563      C2564   1.205       .  T
C2565      C2566   1.206       .  T
C2571      C2579   1.440       .  S
C2571      C2572   1.402       .  A
C2571      C2576   1.401       .  A
C2572      C2573   1.400       .  A
C2572      H2581   1.083       .  S
C2573      C2574   1.402       .  A
C2573      H2582   1.083       .  S
C2574      C2577   1.440       .  S
C2574      C2575   1.401       .  A
C2575      C2576   1.399       .  A
C2575      H2583   1.084       .  S
C2576      H2584   1.084       .  S
C2577      C2578   1.206       .  T
C2579      C2580   1.206       .  T
C2585      C2593   1.438       .  S
C2585      C2586   1.401       .  A
C2585      C2590   1.401   1_565  A
C2586      C2587   1.398       .  A
C2586      H2595   1.084       .  S
C2587      C2588   1.401       .  A
C2587      H2596   1.083       .  S
C2588      C2591   1.438       .  S
C2588      C2589   1.401   1_565  A
C2589      C2590   1.398       .  A
C2589      H2597   1.083   1_556  S
C2590      H2598   1.083   1_556  S
C2591      C2592   1.205       .  T
C2593      C2594   1.205       .  T
C2599      C2607   1.439       .  S
C2599      C2600   1.401   1_565  A
C2599      C2604   1.401       .  A
C2600      C2601   1.399       .  A
C2600      H2609   1.083       .  S
C2601      C2602   1.401   1_545  A
C2601      H2610   1.083       .  S
C2602      C2605   1.439       .  S
C2602      C2603   1.401       .  A
C2603      C2604   1.399       .  A
C2603      H2611   1.083       .  S
C2604      H2612   1.084       .  S
C2605      C2606   1.205       .  T
C2607      C2608   1.206       .  T
C2613      C2621   1.439       .  S
C2613      C2614   1.401       .  A
C2613      C2618   1.402   1_556  A
C2614      C2615   1.398       .  A
C2614      H2623   1.083       .  S
C2615      C2616   1.401       .  A
C2615      H2624   1.083       .  S
C2616      C2619   1.439       .  S
C2616      C2617   1.401   1_556  A
C2617      C2618   1.399       .  A
C2617      H2625   1.083       .  S
C2618      H2626   1.083       .  S
C2619      C2620   1.205       .  T
C2621      C2622   1.206       .  T
C2627      C2635   1.439       .  S
C2627      C2628   1.401       .  A
C2627      C2632   1.401       .  A
C2628      C2629   1.399       .  A
C2628      H2637   1.083       .  S
C2629      C2630   1.401       .  A
C2629      H2638   1.083       .  S
C2630      C2633   1.439       .  S
C2630      C2631   1.401       .  A
C2631      C2632   1.399       .  A
C2631      H2639   1.084       .  S
C2632      H2640   1.084       .  S
C2633      C2634   1.206       .  T
C2635      C2636   1.206       .  T
