geometry optimzed in LAMMPS
_audit_creation_date              2020-11-30 
_audit_creation_method            'lammps2cif' 
_symmetry_space_group_name_H-M    'P1' 
_symmetry_Int_Tables_number       1 
_symmetry_cell_setting            triclinic 
loop_ 
_symmetry_equiv_pos_as_xyz 
  x,y,z 
_cell_length_a                    60.57721145 
_cell_length_b                    60.62339316828412 
_cell_length_c                    60.605594814729926 
_cell_angle_alpha                 90.0129185707273 
_cell_angle_beta                  90.0282282263277 
_cell_angle_gamma                 89.99013665166366 
loop_ 
_atom_site_label 
_atom_site_type_symbol 
_atom_site_fract_x 
_atom_site_fract_y 
_atom_site_fract_z 
_atom_site_charge 
O1          O  0.12061831  0.09650208  0.39752442    -0.71700
O2          O  0.11889770  0.15916661  0.39813433    -0.71900
O3          O  0.08847810  0.12670810  0.39711898    -0.71800
O4          O  0.15114129  0.12888608  0.39847485    -0.71800
O5          O  0.15176707  0.12800356  0.36269914    -0.71700
O6          O  0.08934432  0.12851368  0.36132920    -0.71700
O7          O  0.12093995  0.15939167  0.36239828    -0.71700
O8          O  0.12032916  0.09697195  0.36170599    -0.71900
V9          V  0.11979844  0.12783226  0.39715485     1.35200
V10         V  0.12055241  0.12820169  0.36274806     1.35200
C11         C  0.12055626  0.08604926  0.37945977     0.77600
C12         C  0.12013460  0.16998377  0.38032571     0.77600
C13         C  0.07826839  0.12721225  0.37892684     0.77500
C14         C  0.16216942  0.12883883  0.38075160     0.77400
O15         O  0.12462581  0.84614802  0.39399500    -0.71700
O16         O  0.12553477  0.90876382  0.39544187    -0.71900
O17         O  0.09376984  0.87784841  0.39539833    -0.71800
O18         O  0.15636174  0.87701114  0.39410819    -0.71800
O19         O  0.15566137  0.87821510  0.35830892    -0.71700
O20         O  0.09301260  0.87878731  0.35957734    -0.71700
O21         O  0.12443253  0.90957873  0.35963423    -0.71700
O22         O  0.12387296  0.84699074  0.35820658    -0.71900
V23         V  0.12506572  0.87745494  0.39403670     1.35200
V24         V  0.12430979  0.87831383  0.35962262     1.35200
C25         C  0.12391080  0.83585591  0.37585675     0.77600
C26         C  0.12490638  0.91984787  0.37777567     0.77600
C27         C  0.08272957  0.87869365  0.37771457     0.77500
C28         C  0.16670698  0.87777890  0.37602200     0.77400
O29         O  0.87206120  0.15516477  0.38874222    -0.71700
O30         O  0.86800822  0.09274828  0.38753153    -0.71900
O31         O  0.90113465  0.12202292  0.38907085    -0.71800
O32         O  0.83883813  0.12565964  0.38729484    -0.71800
O33         O  0.83970644  0.12523149  0.35149782    -0.71700
O34         O  0.90245088  0.12367117  0.35332329    -0.71700
O35         O  0.87054435  0.09327329  0.35175582    -0.71700
O36         O  0.87200820  0.15584035  0.35296214    -0.71900
V37         V  0.87001998  0.12394355  0.38744896     1.35200
V38         V  0.87109761  0.12453082  0.35304960     1.35200
C39         C  0.87286751  0.16620506  0.37106505     0.77600
C40         C  0.86896432  0.08240255  0.36946383     0.77600
C41         C  0.91247369  0.12242680  0.37159600     0.77500
C42         C  0.82855560  0.12545026  0.36915829     0.77400
O43         O  0.90547754  0.87647666  0.39456606    -0.71700
O44         O  0.84290519  0.87460117  0.39365036    -0.71900
O45         O  0.87487606  0.84427409  0.39578305    -0.71800
O46         O  0.87340767  0.90677976  0.39235187    -0.71800
O47         O  0.87343602  0.90475158  0.35662708    -0.71700
O48         O  0.87599582  0.84241754  0.36005433    -0.71700
O49         O  0.84347316  0.87204995  0.35794523    -0.71700
O50         O  0.90600860  0.87492489  0.35880190    -0.71900
V51         V  0.87419173  0.87550340  0.39340435     1.35200
V52         V  0.87472819  0.87360550  0.35905306     1.35200
C53         C  0.91644874  0.87614137  0.37682585     0.77600
C54         C  0.83250585  0.87254077  0.37567600     0.77600
C55         C  0.87545296  0.83264800  0.37846499     0.77500
C56         C  0.87318378  0.91647054  0.37387126     0.77400
O57         O  0.14252518  0.40869973  0.37766823    -0.71700
O58         O  0.14053642  0.34623753  0.37643753    -0.71900
O59         O  0.14129608  0.37802677  0.34565414    -0.71800
O60         O  0.14174903  0.37682420  0.40822059    -0.71800
O61         O  0.10601149  0.37967062  0.40845379    -0.71700
O62         O  0.10546551  0.37776892  0.34595143    -0.71700
O63         O  0.10479211  0.34734024  0.37823742    -0.71700
O64         O  0.10671703  0.40981287  0.37621953    -0.71900
V65         V  0.14084351  0.37747272  0.37696420     1.35200
V66         V  0.10642898  0.37859050  0.37719564     1.35200
C67         C  0.12494522  0.41990975  0.37705320     0.77600
C68         C  0.12235440  0.33608119  0.37765475     0.77600
C69         C  0.12327591  0.37801029  0.33510822     0.77500
C70         C  0.12396759  0.37836857  0.41900253     0.77400
O71         O  0.14584941  0.41049037  0.62687580    -0.71700
O72         O  0.14327428  0.34784549  0.62587882    -0.71900
O73         O  0.14373965  0.37978712  0.59526633    -0.71800
O74         O  0.14560461  0.37869289  0.65769855    -0.71800
O75         O  0.10987419  0.38086224  0.65887890    -0.71700
O76         O  0.10791799  0.38021470  0.59622393    -0.71700
O77         O  0.10752026  0.34937878  0.62804052    -0.71700
O78         O  0.11003853  0.41175707  0.62728972    -0.71900
V79         V  0.14392833  0.37919830  0.62646988     1.35200
V80         V  0.10953121  0.38052956  0.62755807     1.35200
C81         C  0.12830377  0.42180840  0.62717288     0.77600
C82         C  0.12491553  0.33795616  0.62697023     0.77600
C83         C  0.12556988  0.38021653  0.58506334     0.77500
C84         C  0.12811706  0.37984631  0.66899817     0.77400
O85         O  0.14367650  0.62872647  0.40584884    -0.71700
O86         O  0.14294589  0.62719008  0.34336817    -0.71900
O87         O  0.14278302  0.65919860  0.37390629    -0.71800
O88         O  0.14384863  0.59665378  0.37518149    -0.71800
O89         O  0.10800656  0.59609806  0.37593066    -0.71700
O90         O  0.10698453  0.65866824  0.37429849    -0.71700
O91         O  0.10714712  0.62656621  0.34373173    -0.71700
O92         O  0.10786335  0.62818368  0.40629699    -0.71900
V93         V  0.14261419  0.62792224  0.37459465     1.35200
V94         V  0.10818795  0.62738110  0.37502945     1.35200
C95         C  0.12589580  0.62883212  0.41676786     0.77600
C96         C  0.12495491  0.62658431  0.33283975     0.77600
C97         C  0.12472835  0.66965829  0.37395829     0.77500
C98         C  0.12610383  0.58571295  0.37576701     0.77400
O99         O  0.11389708  0.59880991  0.62314907    -0.71700
O100        O  0.11312833  0.66126775  0.62681751    -0.71900
O101        O  0.11316220  0.63198650  0.59376237    -0.71800
O102        O  0.11388334  0.62811197  0.65621514    -0.71800
O103        O  0.14950831  0.63196821  0.65598227    -0.71700
O104        O  0.14888513  0.62897661  0.59338396    -0.71700
O105        O  0.14876700  0.66181157  0.62301741    -0.71700
O106        O  0.14959601  0.59919434  0.62620375    -0.71900
V107        V  0.11417446  0.63005421  0.62498550     1.35200
V108        V  0.14855407  0.63048836  0.62466064     1.35200
C109        C  0.13185391  0.58828602  0.62475817     0.77600
C110        C  0.13076210  0.67223301  0.62481991     0.77600
C111        C  0.13091421  0.63061724  0.58289327     0.77500
C112        C  0.13179238  0.62981820  0.66680994     0.77400
O113        O  0.62117896  0.14269444  0.40105072    -0.71700
O114        O  0.62066234  0.14144071  0.33846012    -0.71900
O115        O  0.58978468  0.14314597  0.37026652    -0.71800
O116        O  0.65235385  0.14103615  0.36972995    -0.71800
O117        O  0.65117771  0.10526649  0.36785142    -0.71700
O118        O  0.58871574  0.10751430  0.37321271    -0.71700
O119        O  0.61737231  0.10581307  0.33925416    -0.71700
O120        O  0.62258307  0.10688213  0.40160211    -0.71900
V121        V  0.62102114  0.14140374  0.36981034     1.35200
V122        V  0.61996834  0.10703673  0.37042916     1.35200
C123        C  0.62206356  0.12496601  0.41196255     0.77600
C124        C  0.61856003  0.12341066  0.32813795     0.77600
C125        C  0.57855508  0.12575996  0.37275140     0.77500
C126        C  0.66243593  0.12280522  0.36860614     0.77400
O127        O  0.62283617  0.13914982  0.58882477    -0.71700
O128        O  0.62771326  0.13876589  0.65100905    -0.71900
O129        O  0.65632937  0.13730742  0.61745201    -0.71800
O130        O  0.59397113  0.14040749  0.62230271    -0.71800
O131        O  0.59228899  0.10466823  0.62250306    -0.71700
O132        O  0.65454668  0.10156858  0.61724170    -0.71700
O133        O  0.62617902  0.10302508  0.65107816    -0.71700
O134        O  0.62082722  0.10342583  0.58860081    -0.71900
V135        V  0.62514802  0.13820585  0.61991014     1.35200
V136        V  0.62346103  0.10385153  0.61985231     1.35200
C137        C  0.62120413  0.12141076  0.57802014     0.77600
C138        C  0.62803740  0.12088782  0.66171040     0.77600
C139        C  0.66610009  0.11890469  0.61649839     0.77500
C140        C  0.58244255  0.12303161  0.62321965     0.77400
O141        O  0.33878588  0.11288043  0.38041226    -0.71700
O142        O  0.40133076  0.11152530  0.38025194    -0.71900
O143        O  0.37002500  0.11314319  0.41176775    -0.71800
O144        O  0.36981810  0.11133232  0.34921938    -0.71800
O145        O  0.37079927  0.14708200  0.34814162    -0.71700
O146        O  0.37079363  0.14894188  0.41075294    -0.71700
O147        O  0.40213906  0.14736868  0.37976163    -0.71700
O148        O  0.33945886  0.14867114  0.37939348    -0.71900
V149        V  0.37004189  0.11292384  0.38043498     1.35200
V150        V  0.37079218  0.14732796  0.37950719     1.35200
C151        C  0.32843649  0.13095809  0.37969148     0.77600
C152        C  0.41237269  0.12920417  0.38001094     0.77600
C153        C  0.37031584  0.13135772  0.42193967     0.77500
C154        C  0.37005011  0.12887985  0.33795777     0.77400
O155        O  0.34274671  0.11513159  0.63129232    -0.71700
O156        O  0.40521617  0.11407595  0.62896930    -0.71900
O157        O  0.37497342  0.11434616  0.66148070    -0.71800
O158        O  0.37296251  0.11503510  0.59890275    -0.71800
O159        O  0.37458176  0.15080344  0.59926690    -0.71700
O160        O  0.37441124  0.15012166  0.66189111    -0.71700
O161        O  0.40595387  0.14985678  0.63080523    -0.71700
O162        O  0.34313922  0.15091792  0.63040624    -0.71900
V163        V  0.37399179  0.11535163  0.63018372     1.35200
V164        V  0.37453347  0.14975138  0.63058058     1.35200
C165        C  0.33222920  0.13312731  0.63106528     0.77600
C166        C  0.41625471  0.13173237  0.62967111     0.77600
C167        C  0.37470796  0.13212664  0.67241703     0.77500
C168        C  0.37361558  0.13302989  0.58838430     0.77400
O169        O  0.89104602  0.62303008  0.40749838    -0.71700
O170        O  0.89038194  0.62649297  0.34484118    -0.71900
O171        O  0.89060754  0.65604329  0.37783282    -0.71800
O172        O  0.89089227  0.59353805  0.37456475    -0.71800
O173        O  0.85507226  0.59342478  0.37423325    -0.71700
O174        O  0.85481942  0.65582345  0.37865148    -0.71700
O175        O  0.85459355  0.62687973  0.34532962    -0.71700
O176        O  0.85526330  0.62233350  0.40763202    -0.71900
V177        V  0.89005852  0.62478304  0.37617974     1.35200
V178        V  0.85564619  0.62462422  0.37646928     1.35200
C179        C  0.87319676  0.62185965  0.41827887     0.77600
C180        C  0.87231475  0.62740334  0.33437193     0.77600
C181        C  0.87264768  0.66665049  0.37873060     0.77500
C182        C  0.87302350  0.58278988  0.37390699     0.77400
O183        O  0.89146608  0.61917604  0.59547897    -0.71700
O184        O  0.89100834  0.62302785  0.65792810    -0.71900
O185        O  0.89200151  0.58999296  0.62833894    -0.71800
O186        O  0.89051945  0.65230651  0.62496485    -0.71800
O187        O  0.85479363  0.65165695  0.62747897    -0.71700
O188        O  0.85632219  0.58894496  0.62560371    -0.71700
O189        O  0.85535294  0.61950311  0.65788443    -0.71700
O190        O  0.85564739  0.62123869  0.59522296    -0.71900
V191        V  0.89056072  0.62111877  0.62670113     1.35200
V192        V  0.85616818  0.62033066  0.62655337     1.35200
C193        C  0.87362036  0.61986419  0.58471292     0.77600
C194        C  0.87313373  0.62172178  0.66860480     0.77600
C195        C  0.87452988  0.57873911  0.62674471     0.77500
C196        C  0.87247004  0.66269723  0.62621880     0.77400
O197        O  0.85546751  0.37329584  0.40067711    -0.71700
O198        O  0.85503176  0.37441876  0.33810000    -0.71900
O199        O  0.85633875  0.34263976  0.36893413    -0.71800
O200        O  0.85419585  0.40522556  0.37011931    -0.71800
O201        O  0.88989945  0.40630984  0.36716208    -0.71700
O202        O  0.89205515  0.34389435  0.37136915    -0.71700
O203        O  0.89080811  0.37301925  0.33797440    -0.71700
O204        O  0.89110232  0.37723379  0.40040988    -0.71900
V205        V  0.85591704  0.37393764  0.36941855     1.35200
V206        V  0.89029782  0.37509699  0.36920683     1.35200
C207        C  0.87334994  0.37544978  0.41120661     0.77600
C208        C  0.87286961  0.37334638  0.32730341     0.77600
C209        C  0.87455133  0.33256132  0.37061946     0.77500
C210        C  0.87172540  0.41645396  0.36866063     0.77400
O211        O  0.89598050  0.40181161  0.61762213    -0.71700
O212        O  0.89372937  0.33916111  0.61926263    -0.71900
O213        O  0.89361604  0.36970399  0.58724622    -0.71800
O214        O  0.89614387  0.37123284  0.64971222    -0.71800
O215        O  0.86033643  0.37136472  0.65104342    -0.71700
O216        O  0.85791720  0.37226868  0.58865505    -0.71700
O217        O  0.85795253  0.34051479  0.61950802    -0.71700
O218        O  0.86022177  0.40291362  0.62058146    -0.71900
V219        V  0.89419887  0.37048688  0.61847958     1.35200
V220        V  0.85980796  0.37171631  0.61986270     1.35200
C221        C  0.87843188  0.41295419  0.61939188     0.77600
C222        C  0.87541718  0.32911987  0.61959231     0.77600
C223        C  0.87534301  0.37105180  0.57726193     0.77500
C224        C  0.87862632  0.37159941  0.66104188     0.77400
O225        O  0.34306782  0.86161190  0.37671163    -0.71700
O226        O  0.40551991  0.85953666  0.37766868    -0.71900
O227        O  0.37407806  0.86163591  0.40850888    -0.71800
O228        O  0.37492586  0.85968502  0.34587577    -0.71800
O229        O  0.37565526  0.89543715  0.34488774    -0.71700
O230        O  0.37545554  0.89741708  0.40741665    -0.71700
O231        O  0.40678932  0.89529556  0.37600530    -0.71700
O232        O  0.34410448  0.89738979  0.37618531    -0.71900
V233        V  0.37434971  0.86131850  0.37718436     1.35200
V234        V  0.37544009  0.89569863  0.37615756     1.35200
C235        C  0.33287225  0.87980515  0.37646002     0.77600
C236        C  0.41681640  0.87700387  0.37661006     0.77600
C237        C  0.37491714  0.87986436  0.41863747     0.77500
C238        C  0.37592507  0.87726622  0.33467001     0.77400
O239        O  0.34494024  0.86245228  0.62412755    -0.71700
O240        O  0.40711328  0.85830536  0.62909463    -0.71900
O241        O  0.37346350  0.86024664  0.65792307    -0.71800
O242        O  0.37824157  0.86069573  0.59541885    -0.71800
O243        O  0.38023267  0.89643948  0.59580402    -0.71700
O244        O  0.37643937  0.89591212  0.65828477    -0.71700
O245        O  0.40955949  0.89399154  0.62899624    -0.71700
O246        O  0.34710118  0.89817560  0.62514767    -0.71900
V247        V  0.37603262  0.86111869  0.62666170     1.35200
V248        V  0.37830658  0.89544278  0.62705638     1.35200
C249        C  0.33537093  0.88096312  0.62383638     0.77600
C250        C  0.41902672  0.87539854  0.62977469     0.77600
C251        C  0.37416749  0.87805427  0.66879755     0.77500
C252        C  0.37953874  0.87867127  0.58490806     0.77400
O253        O  0.59551745  0.85093050  0.62443114    -0.71700
O254        O  0.65808665  0.85069542  0.62274755    -0.71900
O255        O  0.62748913  0.85024869  0.65469874    -0.71800
O256        O  0.62601859  0.85148514  0.59212982    -0.71800
O257        O  0.62651384  0.88727047  0.59277748    -0.71700
O258        O  0.62732731  0.88603137  0.65540116    -0.71700
O259        O  0.65830483  0.88648032  0.62367044    -0.71700
O260        O  0.59566823  0.88680076  0.62431299    -0.71900
V261        V  0.62679875  0.85154087  0.62346694     1.35200
V262        V  0.62696885  0.88595688  0.62405149     1.35200
C263        C  0.58499170  0.86890575  0.62467527     0.77600
C264        C  0.66890766  0.86851343  0.62307684     0.77600
C265        C  0.62743509  0.86791311  0.66576468     0.77500
C266        C  0.62591811  0.86959125  0.58173943     0.77400
O267        O  0.62566679  0.88593410  0.40420419    -0.71700
O268        O  0.62470794  0.88484965  0.34173906    -0.71900
O269        O  0.59396322  0.88644266  0.37344384    -0.71800
O270        O  0.65636221  0.88424216  0.37259837    -0.71800
O271        O  0.65524219  0.84856358  0.37499824    -0.71700
O272        O  0.59264123  0.85068552  0.37196544    -0.71700
O273        O  0.62537814  0.84908334  0.34209470    -0.71700
O274        O  0.62232241  0.85027655  0.40487587    -0.71900
V275        V  0.62514929  0.88465759  0.37297793     1.35200
V276        V  0.62393998  0.85029640  0.37348108     1.35200
C277        C  0.62380418  0.86836146  0.41522954     0.77600
C278        C  0.62514404  0.86687383  0.33116696     0.77600
C279        C  0.58262728  0.86897129  0.37268992     0.77500
C280        C  0.66652540  0.86609015  0.37403132     0.77400
O281        O  0.12548765  0.84987066  0.61007090    -0.71700
O282        O  0.12722267  0.91242544  0.61245769    -0.71900
O283        O  0.15740619  0.88035766  0.60951840    -0.71800
O284        O  0.09506243  0.88205662  0.61284669    -0.71800
O285        O  0.09668891  0.87883385  0.64848168    -0.71700
O286        O  0.15945991  0.88071646  0.64524248    -0.71700
O287        O  0.12729265  0.91109468  0.64823627    -0.71700
O288        O  0.12901839  0.84857943  0.64565032    -0.71900
V289        V  0.12629024  0.88115171  0.61192634     1.35200
V290        V  0.12806061  0.87983625  0.64624680     1.35200
C291        C  0.12748914  0.83849082  0.62745717     0.77600
C292        C  0.12749482  0.92246366  0.63074635     0.77600
C293        C  0.16914943  0.88051502  0.62673009     0.77500
C294        C  0.08517024  0.88046641  0.63112170     0.77400
O295        O  0.15479607  0.12996054  0.61449406    -0.71700
O296        O  0.09218027  0.13070842  0.61468662    -0.71900
O297        O  0.12361950  0.16148953  0.61434747    -0.71800
O298        O  0.12300905  0.09893922  0.61488397    -0.71800
O299        O  0.12494343  0.09929546  0.65068151    -0.71700
O300        O  0.12229697  0.16177796  0.65011682    -0.71700
O301        O  0.09222716  0.12935283  0.65047705    -0.71700
O302        O  0.15490707  0.13176126  0.65023162    -0.71900
V303        V  0.12344079  0.13024509  0.61529029     1.35200
V304        V  0.12359014  0.13052918  0.64969694     1.35200
C305        C  0.16560607  0.13104881  0.63233018     0.77600
C306        C  0.08149722  0.13020150  0.63257910     0.77600
C307        C  0.12255253  0.17233271  0.63213868     0.77500
C308        C  0.12410918  0.08846848  0.63288692     0.77400
O309        O  0.90602156  0.12033385  0.60646100    -0.71700
O310        O  0.84352221  0.12057170  0.60216060    -0.71900
O311        O  0.87508059  0.15173496  0.60395061    -0.71800
O312        O  0.87428493  0.08930591  0.60453554    -0.71800
O313        O  0.87426900  0.08961830  0.64036300    -0.71700
O314        O  0.87037517  0.15218785  0.63943499    -0.71700
O315        O  0.84127660  0.11865248  0.63784765    -0.71700
O316        O  0.90351877  0.12307957  0.64207830    -0.71900
V317        V  0.87471478  0.12051544  0.60495578     1.35200
V318        V  0.87241952  0.12089297  0.63927121     1.35200
C319        C  0.91544531  0.12223745  0.62499208     0.77600
C320        C  0.83176002  0.11874830  0.61929367     0.77600
C321        C  0.87266783  0.16267535  0.62152924     0.77500
C322        C  0.87398576  0.07878974  0.62251634     0.77400
O323        O  0.84482835  0.87106429  0.64045059    -0.71700
O324        O  0.90728149  0.87205560  0.64342989    -0.71900
O325        O  0.87537409  0.90269296  0.64083145    -0.71800
O326        O  0.87632781  0.84019875  0.64289230    -0.71800
O327        O  0.87795054  0.83906233  0.60716220    -0.71700
O328        O  0.87737098  0.90160927  0.60507698    -0.71700
O329        O  0.90911989  0.87061676  0.60769761    -0.71700
O330        O  0.84638347  0.86978876  0.60466747    -0.71900
V331        V  0.87605047  0.87146062  0.64119250     1.35200
V332        V  0.87771446  0.87031490  0.60682835     1.35200
C333        C  0.83494246  0.87021200  0.62212083     0.77600
C334        C  0.91891430  0.87149890  0.62612802     0.77600
C335        C  0.87591907  0.91281789  0.62261287     0.77500
C336        C  0.87684660  0.82891576  0.62535120     0.77400
O337        O  0.35426117  0.11776785  0.16081825    -0.71700
O338        O  0.35731223  0.11782669  0.09836272    -0.71900
O339        O  0.35764454  0.08623630  0.12961335    -0.71800
O340        O  0.35416375  0.14895240  0.12951284    -0.71800
O341        O  0.38985309  0.15063805  0.13166463    -0.71700
O342        O  0.39338444  0.08834036  0.13073908    -0.71700
O343        O  0.39305527  0.12001297  0.09996739    -0.71700
O344        O  0.39004079  0.11902249  0.16250894    -0.71900
V345        V  0.35652327  0.11766000  0.12960996     1.35200
V346        V  0.39087323  0.11945328  0.13121527     1.35200
C347        C  0.37163469  0.11857150  0.17233313     0.77600
C348        C  0.37562803  0.11935089  0.08850766     0.77600
C349        C  0.37619941  0.07658997  0.12990593     0.77500
C350        C  0.37152225  0.16051678  0.13059491     0.77400
O351        O  0.35473546  0.09324328  0.88015142    -0.71700
O352        O  0.35925488  0.15552999  0.88244545    -0.71900
O353        O  0.35577882  0.12579651  0.84992638    -0.71800
O354        O  0.35839172  0.12307900  0.91245669    -0.71800
O355        O  0.39420357  0.12270854  0.91093224    -0.71700
O356        O  0.39127946  0.12144016  0.84845784    -0.71700
O357        O  0.39482203  0.15325222  0.87893274    -0.71700
O358        O  0.39045270  0.09069099  0.88061053    -0.71900
V359        V  0.35772125  0.12435844  0.88119165     1.35200
V360        V  0.39201741  0.12202288  0.87972654     1.35200
C361        C  0.37179541  0.08126609  0.88065097     0.77600
C362        C  0.37772273  0.16508284  0.88086930     0.77600
C363        C  0.37314285  0.12412148  0.83846657     0.77500
C364        C  0.37677350  0.12280704  0.92236091     0.77400
O365        O  0.35010904  0.84144159  0.87540060    -0.71700
O366        O  0.34887923  0.90401060  0.87973053    -0.71900
O367        O  0.34877874  0.87484690  0.84610286    -0.71800
O368        O  0.35027913  0.87038880  0.90871285    -0.71800
O369        O  0.38602477  0.87250172  0.90785279    -0.71700
O370        O  0.38456527  0.87426452  0.84542324    -0.71700
O371        O  0.38464837  0.90463600  0.87739365    -0.71700
O372        O  0.38590969  0.84219804  0.87580447    -0.71900
V373        V  0.35016927  0.87271455  0.87744228     1.35200
V374        V  0.38457269  0.87340698  0.87664351     1.35200
C375        C  0.36824813  0.83110789  0.87534138     0.77600
C376        C  0.36661353  0.91499325  0.87893834     0.77600
C377        C  0.36649160  0.87502910  0.83502345     0.77500
C378        C  0.36847174  0.87061286  0.91896097     0.77400
O379        O  0.39941253  0.89906370  0.12556861    -0.71700
O380        O  0.39664487  0.83650640  0.12707453    -0.71900
O381        O  0.39671551  0.86680863  0.09489751    -0.71800
O382        O  0.39921018  0.86853249  0.15757041    -0.71800
O383        O  0.36351245  0.87125976  0.15870123    -0.71700
O384        O  0.36090608  0.86754210  0.09641395    -0.71700
O385        O  0.36095945  0.83803112  0.12940284    -0.71700
O386        O  0.36357514  0.90053529  0.12554410    -0.71900
V387        V  0.39731818  0.86776996  0.12627747     1.35200
V388        V  0.36294094  0.86929531  0.12751640     1.35200
C389        C  0.38192981  0.91045301  0.12523823     0.77600
C390        C  0.37838435  0.82653210  0.12858505     0.77600
C391        C  0.37831702  0.86666026  0.08499813     0.77500
C392        C  0.38174045  0.87042112  0.16882851     0.77400
O393        O  0.87209539  0.35453999  0.14963440    -0.71700
O394        O  0.87214042  0.35725795  0.08700929    -0.71900
O395        O  0.90356806  0.35461279  0.11832187    -0.71800
O396        O  0.84094841  0.35721422  0.11823592    -0.71800
O397        O  0.84250074  0.39298079  0.11863942    -0.71700
O398        O  0.90485425  0.39029805  0.12134730    -0.71700
O399        O  0.87509166  0.39292784  0.08857494    -0.71700
O400        O  0.87240046  0.39029757  0.15106351    -0.71900
V401        V  0.87224612  0.35657624  0.11831903     1.35200
V402        V  0.87367931  0.39092550  0.11983060     1.35200
C403        C  0.87200746  0.37200116  0.16106754     0.77600
C404        C  0.87370242  0.37555212  0.07711581     0.77600
C405        C  0.91485127  0.37204805  0.12033203     0.77500
C406        C  0.83104042  0.37556747  0.11829948     0.77400
O407        O  0.91104119  0.39145051  0.86985760    -0.71700
O408        O  0.84864724  0.39224520  0.86647716    -0.71900
O409        O  0.87812467  0.39250045  0.89960209    -0.71800
O410        O  0.88143805  0.39114317  0.83712055    -0.71800
O411        O  0.88057790  0.35538131  0.83780850    -0.71700
O412        O  0.87820933  0.35672481  0.90028267    -0.71700
O413        O  0.84808926  0.35648442  0.86770006    -0.71700
O414        O  0.91072451  0.35567069  0.87018664    -0.71900
V415        V  0.87982183  0.39113708  0.86832657     1.35200
V416        V  0.87940529  0.35674946  0.86902008     1.35200
C417        C  0.92160417  0.37346861  0.87023862     0.77600
C418        C  0.83769170  0.37452523  0.86623427     0.77600
C419        C  0.87769276  0.37480892  0.91065707     0.77500
C420        C  0.88139252  0.37303695  0.82676901     0.77400
O421        O  0.09136455  0.35446542  0.12797845    -0.71700
O422        O  0.15382724  0.35308110  0.12770025    -0.71900
O423        O  0.12272340  0.35508329  0.15912318    -0.71800
O424        O  0.12239557  0.35267206  0.09639273    -0.71800
O425        O  0.12422413  0.38842722  0.09525322    -0.71700
O426        O  0.12269266  0.39081750  0.15759084    -0.71700
O427        O  0.15468996  0.38884972  0.12713146    -0.71700
O428        O  0.09205327  0.39016948  0.12573698    -0.71900
V429        V  0.12259527  0.35450354  0.12775643     1.35200
V430        V  0.12337470  0.38886798  0.12644909     1.35200
C431        C  0.08099144  0.37251272  0.12688886     0.77600
C432        C  0.16496924  0.37069185  0.12754554     0.77600
C433        C  0.12259288  0.37344454  0.16907487     0.77500
C434        C  0.12357412  0.37021877  0.08514832     0.77400
O435        O  0.16117004  0.39366313  0.87900953    -0.71700
O436        O  0.09838973  0.39444531  0.87705011    -0.71900
O437        O  0.12867249  0.39267642  0.90919405    -0.71800
O438        O  0.13068871  0.39557362  0.84671082    -0.71800
O439        O  0.13033720  0.35984010  0.84504423    -0.71700
O440        O  0.12848125  0.35689725  0.90757444    -0.71700
O441        O  0.09821146  0.35864848  0.87506349    -0.71700
O442        O  0.16063117  0.35791789  0.87717372    -0.71900
V443        V  0.12975386  0.39341201  0.87795717     1.35200
V444        V  0.12942726  0.35903480  0.87629633     1.35200
C445        C  0.17161392  0.37558533  0.87827802     0.77600
C446        C  0.08767807  0.37661423  0.87544210     0.77600
C447        C  0.12813320  0.37432469  0.91905571     0.77500
C448        C  0.13064230  0.37820511  0.83515622     0.77400
O449        O  0.60292986  0.84762035  0.12112073    -0.71700
O450        O  0.60513874  0.91012618  0.12520801    -0.71900
O451        O  0.60373159  0.88099545  0.09195196    -0.71800
O452        O  0.60426658  0.87676233  0.15443853    -0.71800
O453        O  0.64004757  0.87801978  0.15418932    -0.71700
O454        O  0.63938276  0.87679325  0.09159767    -0.71700
O455        O  0.64082162  0.90889234  0.12209908    -0.71700
O456        O  0.63865082  0.84643338  0.12344304    -0.71900
V457        V  0.60467057  0.87886856  0.12319336     1.35200
V458        V  0.63905517  0.87762690  0.12286516     1.35200
C459        C  0.62047240  0.83632045  0.12194125     0.77600
C460        C  0.62335072  0.92020412  0.12361725     0.77600
C461        C  0.62145905  0.87896482  0.08117350     0.77500
C462        C  0.62225186  0.87674529  0.16503960     0.77400
O463        O  0.64861800  0.87339856  0.84265542    -0.71700
O464        O  0.64732080  0.87834951  0.90516203    -0.71900
O465        O  0.64823041  0.84478251  0.87638991    -0.71800
O466        O  0.64787508  0.90719867  0.87131774    -0.71800
O467        O  0.61210999  0.90687445  0.86941808    -0.71700
O468        O  0.61238396  0.84473998  0.87726571    -0.71700
O469        O  0.61154313  0.87951644  0.90416595    -0.71700
O470        O  0.61285173  0.87184487  0.84224106    -0.71900
V471        V  0.64734187  0.87597077  0.87387331     1.35200
V472        V  0.61292617  0.87577253  0.87323778     1.35200
C473        C  0.63089737  0.87144947  0.83178395     0.77600
C474        C  0.62913426  0.87957273  0.91535703     0.77600
C475        C  0.63035572  0.83417881  0.87812696     0.77500
C476        C  0.62995294  0.91771882  0.86932993     0.77400
O477        O  0.61132910  0.09509799  0.86839792    -0.71700
O478        O  0.61141691  0.15763665  0.86864454    -0.71900
O479        O  0.61274333  0.12639543  0.83740675    -0.71800
O480        O  0.61016660  0.12635827  0.90002792    -0.71800
O481        O  0.64598026  0.12614458  0.90139945    -0.71700
O482        O  0.64852282  0.12640155  0.83891382    -0.71700
O483        O  0.64717803  0.15772626  0.87015809    -0.71700
O484        O  0.64714143  0.09495401  0.87011456    -0.71900
V485        V  0.61211134  0.12637942  0.86869614     1.35200
V486        V  0.64651466  0.12632945  0.87013447     1.35200
C487        C  0.62919100  0.08434492  0.86896098     0.77600
C488        C  0.62925037  0.16842914  0.86918201     0.77600
C489        C  0.63109275  0.12632921  0.82745619     0.77500
C490        C  0.62768854  0.12606589  0.91140375     0.77400
O491        O  0.60310023  0.12819800  0.15024126    -0.71700
O492        O  0.60576109  0.12898466  0.08779851    -0.71900
O493        O  0.60461417  0.09736345  0.11858292    -0.71800
O494        O  0.60447196  0.16007394  0.11956347    -0.71800
O495        O  0.64030908  0.16002937  0.12067994    -0.71700
O496        O  0.64038963  0.09748822  0.12033822    -0.71700
O497        O  0.64158085  0.12904799  0.08917313    -0.71700
O498        O  0.63887256  0.12831838  0.15191152    -0.71900
V499        V  0.60518949  0.12869887  0.11906135     1.35200
V500        V  0.63959798  0.12875114  0.12050753     1.35200
C501        C  0.62045859  0.12785132  0.16178737     0.77600
C502        C  0.62406059  0.12894609  0.07779766     0.77600
C503        C  0.62255319  0.08670952  0.11942027     0.77500
C504        C  0.62241660  0.17073429  0.12020435     0.77400
O505        O  0.12411014  0.63966236  0.15592274    -0.71700
O506        O  0.12631221  0.63893760  0.09353004    -0.71900
O507        O  0.09378356  0.64087639  0.12384678    -0.71800
O508        O  0.15638522  0.63755724  0.12560926    -0.71800
O509        O  0.15443902  0.60186868  0.12386090    -0.71700
O510        O  0.09207354  0.60521762  0.12637876    -0.71700
O511        O  0.12201312  0.60333774  0.09373890    -0.71700
O512        O  0.12444358  0.60386851  0.15632967    -0.71900
V513        V  0.12508249  0.63859049  0.12471916     1.35200
V514        V  0.12326606  0.60424690  0.12504835     1.35200
C515        C  0.12423655  0.62189720  0.16682007     0.77600
C516        C  0.12455850  0.62104040  0.08302554     0.77600
C517        C  0.08222900  0.62356791  0.12555139     0.77500
C518        C  0.16612271  0.61911504  0.12462222     0.77400
O519        O  0.15824448  0.64321667  0.87450669    -0.71700
O520        O  0.09561535  0.64155234  0.87715761    -0.71900
O521        O  0.12822557  0.64138267  0.90699029    -0.71800
O522        O  0.12576053  0.64343338  0.84443239    -0.71800
O523        O  0.12745996  0.60772463  0.84323752    -0.71700
O524        O  0.12826287  0.60563248  0.90576429    -0.71700
O525        O  0.09647716  0.60583220  0.87498311    -0.71700
O526        O  0.15904072  0.60745439  0.87414849    -0.71900
V527        V  0.12694318  0.64171840  0.87571684     1.35200
V528        V  0.12776868  0.60736060  0.87453668     1.35200
C529        C  0.16937327  0.62557253  0.87408611     0.77600
C530        C  0.08534863  0.62338844  0.87672050     0.77600
C531        C  0.12859768  0.62313523  0.91709227     0.77500
C532        C  0.12667608  0.62593892  0.83309403     0.77400
O533        O  0.90902231  0.64220667  0.87571170    -0.71700
O534        O  0.84650222  0.64485276  0.87743976    -0.71900
O535        O  0.87852690  0.64372291  0.90779124    -0.71800
O536        O  0.87679156  0.64336918  0.84530252    -0.71800
O537        O  0.87648078  0.60758703  0.84547942    -0.71700
O538        O  0.87582418  0.60801469  0.90806643    -0.71700
O539        O  0.84503526  0.60906757  0.87677132    -0.71700
O540        O  0.90761022  0.60645490  0.87729168    -0.71900
V541        V  0.87772632  0.64284264  0.87654427     1.35200
V542        V  0.87631394  0.60846126  0.87682441     1.35200
C543        C  0.91900515  0.62391286  0.87659101     0.77600
C544        C  0.83511472  0.62739225  0.87761129     0.77600
C545        C  0.87683523  0.62597120  0.91859621     0.77500
C546        C  0.87624606  0.62544738  0.83467347     0.77400
O547        O  0.87281641  0.61278647  0.15791705    -0.71700
O548        O  0.87477006  0.61138624  0.09543579    -0.71900
O549        O  0.90504396  0.61188140  0.12753742    -0.71800
O550        O  0.84258412  0.61226360  0.12559591    -0.71800
O551        O  0.84270750  0.64802897  0.12488025    -0.71700
O552        O  0.90531733  0.64770485  0.12700180    -0.71700
O553        O  0.87478072  0.64720633  0.09467778    -0.71700
O554        O  0.87301505  0.64855127  0.15719054    -0.71900
V555        V  0.87381353  0.61278160  0.12664011     1.35200
V556        V  0.87398530  0.64718827  0.12595223     1.35200
C557        C  0.87255572  0.63090234  0.16827178     0.77600
C558        C  0.87487660  0.62905828  0.08440395     0.77600
C559        C  0.91584680  0.62970497  0.12758764     0.77500
C560        C  0.83193896  0.63016345  0.12471669     0.77400
O561        O  0.37310557  0.39991628  0.14236714    -0.71700
O562        O  0.37299475  0.33747288  0.14376800    -0.71900
O563        O  0.40441020  0.36901556  0.14269593    -0.71800
O564        O  0.34179384  0.36873480  0.14332731    -0.71800
O565        O  0.34145980  0.36767300  0.10754789    -0.71700
O566        O  0.40406799  0.36814998  0.10688642    -0.71700
O567        O  0.37268762  0.33657427  0.10798725    -0.71700
O568        O  0.37240976  0.39914897  0.10654719    -0.71900
V569        V  0.37309853  0.36871031  0.14234087     1.35200
V570        V  0.37272109  0.36787778  0.10792982     1.35200
C571        C  0.37263003  0.41018670  0.12424767     0.77600
C572        C  0.37229233  0.32632483  0.12614877     0.77600
C573        C  0.41493136  0.36912876  0.12467948     0.77500
C574        C  0.33091529  0.36820751  0.12551801     0.77400
O575        O  0.34290687  0.61725518  0.14084927    -0.71700
O576        O  0.40565747  0.61917887  0.14093052    -0.71900
O577        O  0.37315858  0.64946347  0.14095977    -0.71800
O578        O  0.37508120  0.58712061  0.14118877    -0.71800
O579        O  0.37392954  0.58681243  0.10538680    -0.71700
O580        O  0.37479832  0.64959554  0.10516614    -0.71700
O581        O  0.40554288  0.61757525  0.10514807    -0.71700
O582        O  0.34309672  0.61852699  0.10508853    -0.71900
V583        V  0.37425012  0.61828295  0.14029179     1.35200
V584        V  0.37433958  0.61816615  0.10587871     1.35200
C585        C  0.33227265  0.61759846  0.12287178     0.77600
C586        C  0.41629967  0.61816680  0.12297869     0.77600
C587        C  0.37366094  0.66020853  0.12312614     0.77500
C588        C  0.37437560  0.57628923  0.12341582     0.77400
O589        O  0.59263737  0.62700133  0.13873171    -0.71700
O590        O  0.65511014  0.63080409  0.13952612    -0.71900
O591        O  0.62211991  0.66014299  0.13800585    -0.71800
O592        O  0.62554611  0.59792852  0.14039273    -0.71800
O593        O  0.62545476  0.59645587  0.10459409    -0.71700
O594        O  0.62333182  0.65901714  0.10225514    -0.71700
O595        O  0.65560048  0.62872593  0.10378873    -0.71700
O596        O  0.59308508  0.62661966  0.10289789    -0.71900
V597        V  0.62386763  0.62898786  0.13846016     1.35200
V598        V  0.62435648  0.62774849  0.10406197     1.35200
C599        C  0.58222212  0.62600134  0.12067815     0.77600
C600        C  0.66605257  0.63017658  0.12178185     0.77600
C601        C  0.62234339  0.67028457  0.11979192     0.77500
C602        C  0.62577153  0.58654729  0.12295714     0.77400
O603        O  0.65402181  0.37999669  0.10612296    -0.71700
O604        O  0.59152300  0.37907753  0.10701015    -0.71900
O605        O  0.62221833  0.41061985  0.10716856    -0.71800
O606        O  0.62334687  0.34814221  0.10601386    -0.71800
O607        O  0.62397745  0.34748022  0.14178183    -0.71700
O608        O  0.62297917  0.41004786  0.14299996    -0.71700
O609        O  0.59200171  0.37822347  0.14282265    -0.71700
O610        O  0.65470969  0.37941968  0.14190645    -0.71900
V611        V  0.62278783  0.37941379  0.10728795     1.35200
V612        V  0.62337023  0.37878493  0.14169988     1.35200
C613        C  0.66507777  0.38007099  0.12381747     0.77600
C614        C  0.58106800  0.37871027  0.12503169     0.77600
C615        C  0.62251805  0.42097425  0.12524953     0.77500
C616        C  0.62396652  0.33707844  0.12369549     0.77400
O617        O  0.34597519  0.62405625  0.88866992    -0.71700
O618        O  0.40834656  0.62235193  0.89000004    -0.71900
O619        O  0.37773652  0.65436530  0.88940524    -0.71800
O620        O  0.37634758  0.59186597  0.88915724    -0.71800
O621        O  0.37961878  0.59192696  0.85348126    -0.71700
O622        O  0.37631291  0.65448770  0.85361691    -0.71700
O623        O  0.40925834  0.62497371  0.85426987    -0.71700
O624        O  0.34654949  0.62165524  0.85291304    -0.71900
V625        V  0.37715065  0.62312556  0.88861129     1.35200
V626        V  0.37791759  0.62322369  0.85421320     1.35200
C627        C  0.33559791  0.62313745  0.87063131     0.77600
C628        C  0.41946842  0.62389182  0.87244918     0.77600
C629        C  0.37668584  0.66511861  0.87156509     0.77500
C630        C  0.37814888  0.58120439  0.87131689     0.77400
O631        O  0.59537572  0.62618819  0.89750790    -0.71700
O632        O  0.65811697  0.62577605  0.89940651    -0.71900
O633        O  0.62686920  0.65725467  0.89938515    -0.71800
O634        O  0.62658541  0.59457853  0.89754580    -0.71800
O635        O  0.62977158  0.59576494  0.86186443    -0.71700
O636        O  0.62605565  0.65803214  0.86362496    -0.71700
O637        O  0.65890647  0.62863697  0.86375360    -0.71700
O638        O  0.59665530  0.62516626  0.86173140    -0.71900
V639        V  0.62674561  0.62593851  0.89782163     1.35200
V640        V  0.62779060  0.62687826  0.86345440     1.35200
C641        C  0.58532521  0.62557212  0.87921335     0.77600
C642        C  0.66923659  0.62746969  0.88180917     0.77600
C643        C  0.62628671  0.66836818  0.88172496     0.77500
C644        C  0.62865580  0.58453053  0.87936706     0.77400
O645        O  0.65994401  0.37546093  0.85099475    -0.71700
O646        O  0.59770378  0.37891859  0.85618205    -0.71900
O647        O  0.63050941  0.40841465  0.85374710    -0.71800
O648        O  0.62712059  0.34589553  0.85349194    -0.71800
O649        O  0.63173201  0.34554586  0.88899813    -0.71700
O650        O  0.63200721  0.40809218  0.88952947    -0.71700
O651        O  0.60051582  0.37685405  0.89184213    -0.71700
O652        O  0.66293853  0.37683726  0.88666972    -0.71900
V653        V  0.62886352  0.37715581  0.85428942     1.35200
V654        V  0.63171083  0.37683729  0.88858482     1.35200
C655        C  0.67208518  0.37593888  0.86794554     0.77600
C656        C  0.58845873  0.37812760  0.87485246     0.77600
C657        C  0.63170855  0.41894123  0.87171557     0.77500
C658        C  0.62929701  0.33500670  0.87116298     0.77400
O659        O  0.37973504  0.40501037  0.89588517    -0.71700
O660        O  0.38061142  0.34240122  0.89807676    -0.71900
O661        O  0.41136556  0.37422372  0.89712213    -0.71800
O662        O  0.34871253  0.37330507  0.89693953    -0.71800
O663        O  0.34883298  0.37206288  0.86118109    -0.71700
O664        O  0.41146830  0.37288152  0.86134168    -0.71700
O665        O  0.38068316  0.34122768  0.86231416    -0.71700
O666        O  0.37966121  0.40369433  0.86009120    -0.71900
V667        V  0.38007242  0.37369157  0.89632136     1.35200
V668        V  0.38014667  0.37247810  0.86193388     1.35200
C669        C  0.37969569  0.41503734  0.87758857     0.77600
C670        C  0.38104534  0.33109509  0.88053824     0.77600
C671        C  0.42212675  0.37381241  0.87926971     0.77500
C672        C  0.33802264  0.37270453  0.87901062     0.77400
C673        C  0.48165488  0.38283672  0.89691885    -0.27500
C674        C  0.49312535  0.37647240  0.87784015     0.02100
C675        C  0.48115474  0.36860869  0.85951229     0.30200
C676        C  0.45807085  0.36779183  0.86027709    -0.19300
C677        C  0.44654499  0.37449322  0.87922676    -0.28700
C678        C  0.45859539  0.38190879  0.89773464     0.44200
C679        C  0.51757424  0.37775233  0.87745752     0.05400
O680        O  0.49194587  0.36061010  0.84126547    -0.57200
H681        H  0.44919258  0.36161052  0.84603601     0.18300
O682        O  0.44807085  0.38845957  0.91666796    -0.63900
H683        H  0.49062303  0.38881984  0.91118997     0.16800
C684        C  0.52878532  0.38869161  0.86028204     0.29000
C685        C  0.55184039  0.38868287  0.85970088    -0.24800
C686        C  0.56414868  0.37855570  0.87651238    -0.24100
C687        C  0.55296585  0.36850761  0.89425625     0.40500
C688        C  0.52986474  0.36809042  0.89457366    -0.26600
O689        O  0.51738962  0.39967147  0.84410079    -0.58500
H690        H  0.56013408  0.39687672  0.84614927     0.16100
O691        O  0.56439052  0.35860286  0.91110311    -0.59900
H692        H  0.52151458  0.35981462  0.90803800     0.14600
H693        H  0.44530753  0.40446347  0.91472705     0.46400
H694        H  0.51443224  0.41452294  0.85026884     0.41800
H695        H  0.56678364  0.34318509  0.90618215     0.45300
H696        H  0.48783898  0.37058922  0.82895189     0.36700
C697        C  0.62029322  0.52395678  0.89214918    -0.27500
C698        C  0.63330197  0.51403284  0.87576848     0.02100
C699        C  0.64483637  0.52737196  0.86069634     0.30200
C700        C  0.64305532  0.55032977  0.86198456    -0.19300
C701        C  0.63009993  0.56029163  0.87842346    -0.28700
C702        C  0.61864383  0.54691560  0.89356639     0.44200
C703        C  0.63417725  0.48973736  0.87426782     0.05400
O704        O  0.65796717  0.51811946  0.84475167    -0.57200
H705        H  0.65208799  0.56038969  0.85028922     0.18300
O706        O  0.60538273  0.55606678  0.90945899    -0.63900
H707        H  0.61107022  0.51383463  0.90363588     0.16800
C708        C  0.64148777  0.47701735  0.89222669     0.29000
C709        C  0.64082353  0.45399656  0.89104151    -0.24800
C710        C  0.63285044  0.44330153  0.87206907    -0.24100
C711        C  0.62592399  0.45612608  0.85390049     0.40500
C712        C  0.62669750  0.47916241  0.85509223    -0.26600
O713        O  0.64986529  0.48698810  0.91075181    -0.58500
H714        H  0.64659736  0.44450023  0.90504503     0.16100
O715        O  0.61795518  0.44640013  0.83507791    -0.59900
H716        H  0.62090398  0.48882632  0.84120679     0.14600
H717        H  0.59081905  0.55807634  0.90226014     0.46400
H718        H  0.63791170  0.48614980  0.92189847     0.41800
H719        H  0.60186168  0.44474482  0.83757820     0.45300
H720        H  0.67263856  0.51634105  0.85178446     0.36700
C721        C  0.38853019  0.52144948  0.85546470    -0.27500
C722        C  0.37826479  0.51028995  0.87296792     0.02100
C723        C  0.36780981  0.52256646  0.88968759     0.30200
C724        C  0.36805333  0.54560249  0.88897240    -0.19300
C725        C  0.37830086  0.55682593  0.87149258    -0.28700
C726        C  0.38860601  0.54453348  0.85462475     0.44200
C727        C  0.37880787  0.48587859  0.87390245     0.05400
O728        O  0.35712266  0.51218669  0.90671875    -0.57200
H729        H  0.35989250  0.55471822  0.90200860     0.18300
O730        O  0.39915616  0.55485991  0.83747857    -0.63900
H731        H  0.39683287  0.51222780  0.84259340     0.16800
C732        C  0.37106847  0.47301267  0.85617322     0.29000
C733        C  0.37165623  0.44998432  0.85751342    -0.24800
C734        C  0.37963072  0.43939897  0.87654186    -0.24100
C735        C  0.38755568  0.45231400  0.89420928     0.40500
C736        C  0.38707943  0.47533367  0.89278964    -0.26600
O737        O  0.36257998  0.48278217  0.83760349    -0.58500
H738        H  0.36547045  0.44038524  0.84375366     0.16100
O739        O  0.39606073  0.44266608  0.91283600    -0.59900
H740        H  0.39338530  0.48501775  0.90643679     0.14600
H741        H  0.41442948  0.55744752  0.84277569     0.46400
H742        H  0.34674081  0.48523889  0.84089906     0.41800
H743        H  0.41187694  0.44009201  0.90950598     0.45300
H744        H  0.34200722  0.50928379  0.90115548     0.36700
C745        C  0.52659829  0.61960454  0.85833552    -0.27500
C746        C  0.51450348  0.62772863  0.87627637     0.02100
C747        C  0.52573173  0.63495122  0.89528900     0.30200
C748        C  0.54878084  0.63383706  0.89620707    -0.19300
C749        C  0.56095744  0.62577557  0.87820126    -0.28700
C750        C  0.54961578  0.61851961  0.85918751     0.44200
C751        C  0.49014292  0.62741210  0.87538758     0.05400
O752        O  0.51431171  0.64319603  0.91300489    -0.57200
H753        H  0.55714799  0.63962564  0.91091382     0.18300
O754        O  0.56079455  0.61003490  0.84143360    -0.63900
H755        H  0.51811696  0.61361550  0.84377412     0.16800
C756        C  0.47853316  0.63846499  0.85856956     0.29000
C757        C  0.45547860  0.63700199  0.85758628    -0.24800
C758        C  0.44377337  0.62467836  0.87332242    -0.24100
C759        C  0.45545854  0.61369189  0.89016372     0.40500
C760        C  0.47846333  0.61503439  0.89102423    -0.26600
O761        O  0.48953762  0.65136299  0.84357448    -0.58500
H762        H  0.44671821  0.64583165  0.84473652     0.16100
O763        O  0.44462830  0.60079332  0.90527629    -0.59900
H764        H  0.48726485  0.60609652  0.90377217     0.14600
H765        H  0.56219085  0.59402951  0.84450160     0.46400
H766        H  0.49002020  0.64254229  0.82979942     0.41800
H767        H  0.44334757  0.61004880  0.91870141     0.45300
H768        H  0.51280525  0.65921084  0.91005058     0.36700
C769        C  0.61834527  0.52792637  0.14319515    -0.27500
C770        C  0.62647305  0.51586781  0.12522816     0.02100
C771        C  0.63474641  0.52712280  0.10667620     0.30200
C772        C  0.63442417  0.55015531  0.10611190    -0.19300
C773        C  0.62620015  0.56227176  0.12404983    -0.28700
C774        C  0.61814365  0.55095037  0.14272956     0.44200
C775        C  0.62537755  0.49156268  0.12559766     0.05400
O776        O  0.64314779  0.51574117  0.08900865    -0.57200
H777        H  0.64078771  0.55855530  0.09167491     0.18300
O778        O  0.60953088  0.56216096  0.16040770    -0.63900
H779        H  0.61162168  0.51944601  0.15741940     0.16800
C780        C  0.63530148  0.47934989  0.14267373     0.29000
C781        C  0.63391103  0.45631777  0.14260140    -0.24800
C782        C  0.62278589  0.44523849  0.12556474    -0.24100
C783        C  0.61267419  0.45751942  0.10862111     0.40500
C784        C  0.61390163  0.48051605  0.10882045    -0.26600
O785        O  0.64723024  0.48974106  0.15887991    -0.58500
H786        H  0.64201035  0.44708726  0.15560211     0.16100
O787        O  0.60088478  0.44724807  0.09224325    -0.59900
H788        H  0.60577715  0.48978860  0.09586443     0.14600
H789        H  0.59369572  0.56428987  0.15684109     0.46400
H790        H  0.63766168  0.48946251  0.17215225     0.41800
H791        H  0.61097716  0.44668427  0.07938709     0.45300
H792        H  0.65871578  0.51258811  0.09295302     0.36700
C793        C  0.47554393  0.60945869  0.10451411    -0.27500
C794        C  0.48728012  0.61834406  0.12236789     0.02100
C795        C  0.47559079  0.62688440  0.14055300     0.30200
C796        C  0.45248307  0.62644703  0.14067650    -0.19300
C797        C  0.44069722  0.61773728  0.12274559    -0.28700
C798        C  0.45246425  0.60901310  0.10461957     0.44200
C799        C  0.51168141  0.61934013  0.12150553     0.05400
O800        O  0.48660508  0.63688312  0.15763818    -0.57200
H801        H  0.44377251  0.63345712  0.15462544     0.18300
O802        O  0.44162641  0.59997590  0.08691287    -0.63900
H803        H  0.48433869  0.60278167  0.09044848     0.16800
C804        C  0.52468028  0.61023158  0.13847557     0.29000
C805        C  0.54759667  0.61277133  0.13808780    -0.24800
C806        C  0.55799498  0.62368624  0.12051422    -0.24100
C807        C  0.54507577  0.63193456  0.10301189     0.40500
C808        C  0.52208484  0.62977710  0.10363898    -0.26600
O809        O  0.51516580  0.59862914  0.15540593    -0.58500
H810        H  0.55731194  0.60582966  0.15140514     0.16100
O811        O  0.55466734  0.64250375  0.08545234    -0.59900
H812        H  0.51230268  0.63667713  0.09035067     0.14600
H813        H  0.43931609  0.58427329  0.09086234     0.46400
H814        H  0.51348322  0.58338294  0.14972977     0.41800
H815        H  0.55580986  0.65818385  0.08998562     0.45300
H816        H  0.48441039  0.62712037  0.17059604     0.36700
C817        C  0.47507546  0.36614284  0.10704532    -0.27500
C818        C  0.48567103  0.37566157  0.12532318     0.02100
C819        C  0.47286778  0.38346765  0.14305559     0.30200
C820        C  0.44988854  0.38101916  0.14264405    -0.19300
C821        C  0.43927447  0.37108101  0.12458187    -0.28700
C822        C  0.45208233  0.36382841  0.10655773     0.44200
C823        C  0.51009565  0.37709349  0.12573332     0.05400
O824        O  0.48261643  0.39446015  0.16030661    -0.57200
H825        H  0.44031356  0.38730141  0.15637446     0.18300
O826        O  0.44237589  0.35427905  0.08847578    -0.63900
H827        H  0.48472132  0.36015989  0.09322965     0.16800
C828        C  0.52238135  0.36768173  0.14309892     0.29000
C829        C  0.54544151  0.36881114  0.14293212    -0.24800
C830        C  0.55667504  0.37867087  0.12525648    -0.24100
C831        C  0.54438829  0.38799101  0.10780559     0.40500
C832        C  0.52129234  0.38724237  0.10820554    -0.26600
O833        O  0.51204546  0.35679778  0.16002417    -0.58500
H834        H  0.55458441  0.36135690  0.15637204     0.16100
O835        O  0.55474679  0.39852741  0.09066213    -0.59900
H836        H  0.51207323  0.39462280  0.09477354     0.14600
H837        H  0.44178043  0.33829237  0.09187696     0.46400
H838        H  0.50975028  0.34155516  0.15455235     0.41800
H839        H  0.55522915  0.38756640  0.07853523     0.45300
H840        H  0.48034244  0.38497473  0.17345833     0.36700
C841        C  0.36315215  0.46941416  0.10669134    -0.27500
C842        C  0.37314191  0.48098309  0.12410570     0.02100
C843        C  0.38261552  0.46907985  0.14169524     0.30200
C844        C  0.38204007  0.44604747  0.14163349    -0.19300
C845        C  0.37254204  0.43448754  0.12394890    -0.28700
C846        C  0.36305847  0.44635612  0.10636115     0.44200
C847        C  0.37350212  0.50541450  0.12379699     0.05400
O848        O  0.39272928  0.47977465  0.15889669    -0.57200
H849        H  0.38948003  0.43719190  0.15527322     0.18300
O850        O  0.35285669  0.43562301  0.08923687    -0.63900
H851        H  0.35524828  0.47828635  0.09333890     0.16800
C852        C  0.38109149  0.51704603  0.10515806     0.29000
C853        C  0.38120583  0.54012521  0.10521713    -0.24800
C854        C  0.37398208  0.55194720  0.12376128    -0.24100
C855        C  0.36639739  0.54027778  0.14242302     0.40500
C856        C  0.36611375  0.51723538  0.14227664    -0.26600
O857        O  0.38938165  0.50598109  0.08722686    -0.58500
H858        H  0.38732323  0.54877920  0.09082445     0.16100
O859        O  0.35902147  0.55117558  0.16084048    -0.59900
H860        H  0.35988919  0.50856255  0.15661262     0.14600
H861        H  0.36392008  0.43527483  0.07719850     0.46400
H862        H  0.37814458  0.50773857  0.07544554     0.41800
H863        H  0.34303278  0.55359639  0.15828225     0.45300
H864        H  0.40824263  0.48185894  0.15413466     0.36700
C865        C  0.77221852  0.61115778  0.12227143    -0.27500
C866        C  0.76113140  0.63136562  0.12131471     0.02100
C867        C  0.77319505  0.65112465  0.12107278     0.30200
C868        C  0.79623523  0.65051719  0.12212996    -0.19300
C869        C  0.80753768  0.63027441  0.12343634    -0.28700
C870        C  0.79523601  0.61045662  0.12345369     0.44200
C871        C  0.73688616  0.63160059  0.12116868     0.05400
O872        O  0.76258232  0.67108163  0.11995027    -0.57200
H873        H  0.80523575  0.66595566  0.12197719     0.18300
O874        O  0.80544320  0.59029044  0.12452232    -0.63900
H875        H  0.76294085  0.59587344  0.12244185     0.16800
C876        C  0.72510466  0.62539617  0.10222431     0.29000
C877        C  0.70204609  0.62528317  0.10258384    -0.24800
C878        C  0.69044784  0.63090814  0.12188890    -0.24100
C879        C  0.70243716  0.63702988  0.14092500     0.40500
C880        C  0.72550278  0.63741125  0.14039756    -0.26600
O881        O  0.73601237  0.61980193  0.08319890    -0.58500
H882        H  0.69325375  0.62049510  0.08776788     0.16100
O883        O  0.69187245  0.64254031  0.16016135    -0.59900
H884        H  0.73457057  0.64203293  0.15510915     0.14600
H885        H  0.80588833  0.58655288  0.14044564     0.46400
H886        H  0.73758576  0.60353300  0.08378012     0.41800
H887        H  0.68974741  0.65873634  0.15939808     0.45300
H888        H  0.76034485  0.67384855  0.10398125     0.36700
C889        C  0.77574998  0.64679985  0.87373580    -0.27500
C890        C  0.76455173  0.62898513  0.88334298     0.02100
C891        C  0.77660306  0.61080214  0.89121530     0.30200
C892        C  0.79957972  0.61043154  0.88901621    -0.19300
C893        C  0.81085398  0.62824581  0.87939178    -0.28700
C894        C  0.79875962  0.64666043  0.87194822     0.44200
C895        C  0.74020927  0.62885645  0.88341533     0.05400
O896        O  0.76595641  0.59286199  0.89999322    -0.57200
H897        H  0.80860479  0.59618395  0.89495401     0.18300
O898        O  0.80913151  0.66410524  0.86194650    -0.63900
H899        H  0.76656190  0.66078172  0.86741840     0.16800
C900        C  0.72807711  0.62792482  0.90317504     0.29000
C901        C  0.70498006  0.62742755  0.90248713    -0.24800
C902        C  0.69367960  0.62806283  0.88220725    -0.24100
C903        C  0.70602911  0.62929828  0.86245547     0.40500
C904        C  0.72904095  0.62964084  0.86322484    -0.26600
O905        O  0.73862341  0.62762608  0.92320236    -0.58500
H906        H  0.69592718  0.62662997  0.91787636     0.16100
O907        O  0.69588680  0.62974431  0.84222167    -0.59900
H908        H  0.73826098  0.63031960  0.84791603     0.14600
H909        H  0.81066245  0.67545844  0.87362675     0.46400
H910        H  0.74118609  0.64333916  0.92693585     0.41800
H911        H  0.69458261  0.64561368  0.83842654     0.45300
H912        H  0.76860160  0.59372329  0.91611379     0.36700
C913        C  0.86524706  0.60989164  0.97792449    -0.27500
C914        C  0.87380784  0.62812208  0.98931023     0.02100
C915        C  0.88338885  0.64557539  0.97737701     0.30200
C916        C  0.88426268  0.64462376  0.95434465    -0.19300
C917        C  0.87582435  0.62633865  0.94290691    -0.28700
C918        C  0.86624256  0.60885617  0.95490676     0.44200
C919        C  0.87348574  0.62828423  0.01367585     0.05400
O920        O  0.89299828  0.66301878  0.98816517    -0.57200
H921        H  0.89190479  0.65810651  0.94544185     0.18300
O922        O  0.85711301  0.59105531  0.94431526    -0.63900
H923        H  0.85772974  0.59641187  0.98694486     0.16800
C924        C  0.86384943  0.64580938  0.02548480     0.29000
C925        C  0.86479067  0.64603732  0.04851409    -0.24800
C926        C  0.87465115  0.62857814  0.06010858    -0.24100
C927        C  0.88371934  0.61072309  0.04828672     0.40500
C928        C  0.88310791  0.61070088  0.02524261    -0.26600
O929        O  0.85320597  0.66261678  0.01469551    -0.58500
H930        H  0.85734755  0.65968407  0.05734791     0.16100
O931        O  0.89351046  0.59337837  0.05903640    -0.59900
H932        H  0.89049313  0.59706473  0.01634052     0.14600
H933        H  0.86863487  0.57944916  0.94473478     0.46400
H934        H  0.83787614  0.65731365  0.01253501     0.41800
H935        H  0.90911447  0.59785222  0.06110445     0.45300
H936        H  0.88355989  0.67598151  0.98481408     0.36700
C937        C  0.22901000  0.64501175  0.87011227    -0.27500
C938        C  0.24040377  0.62492447  0.87157595     0.02100
C939        C  0.22846501  0.60525962  0.87444815     0.30200
C940        C  0.20540584  0.60581479  0.87537530    -0.19300
C941        C  0.19383707  0.62584405  0.87350888    -0.28700
C942        C  0.20592883  0.64562264  0.87111481     0.44200
C943        C  0.26479159  0.62476080  0.87073402     0.05400
O944        O  0.23927439  0.58557549  0.87738187    -0.57200
H945        H  0.19659367  0.59044055  0.87768399     0.18300
O946        O  0.19544172  0.66559110  0.86929431    -0.63900
H947        H  0.23807233  0.66028499  0.86805463     0.16800
C948        C  0.27623000  0.61263426  0.85452354     0.29000
C949        C  0.29933609  0.61239202  0.85443234    -0.24800
C950        C  0.31128874  0.62406488  0.87046191    -0.24100
C951        C  0.29981003  0.63654290  0.88639860     0.40500
C952        C  0.27674396  0.63695044  0.88632917    -0.26600
O953        O  0.26497956  0.60102755  0.83868051    -0.58500
H954        H  0.30791870  0.60281391  0.84201288     0.16100
O955        O  0.31099739  0.64906040  0.90159698    -0.59900
H956        H  0.26813778  0.64659558  0.89868534     0.14600
H957        H  0.19509397  0.67164514  0.88449064     0.46400
H958        H  0.26180876  0.61186266  0.82685694     0.41800
H959        H  0.31109386  0.64013435  0.91530701     0.45300
H960        H  0.23631110  0.57689371  0.86383164     0.36700
C961        C  0.97926842  0.63864992  0.86839751    -0.27500
C962        C  0.98991739  0.62113735  0.87915457     0.02100
C963        C  0.97712958  0.60445709  0.88906068     0.30200
C964        C  0.95401970  0.60540402  0.88787446    -0.19300
C965        C  0.94338095  0.62298031  0.87711734    -0.28700
C966        C  0.95624017  0.63974841  0.86744530     0.44200
C967        C  0.01437466  0.62080879  0.87986481     0.05400
O968        O  0.98704752  0.58787294  0.90087684    -0.57200
H969        H  0.94439680  0.59260044  0.89581171     0.18300
O970        O  0.94650134  0.65688347  0.85631915    -0.63900
H971        H  0.98889844  0.65151278  0.86056242     0.16800
C972        C  0.02649962  0.60295137  0.87125282     0.29000
C973        C  0.04958742  0.60383809  0.87070788    -0.24800
C974        C  0.06096184  0.62259012  0.87825814    -0.24100
C975        C  0.04878620  0.64029524  0.88722442     0.40500
C976        C  0.02572911  0.63931966  0.88789540    -0.26600
O977        O  0.01595611  0.58487296  0.86264633    -0.58500
H978        H  0.05857994  0.59003279  0.86377119     0.16100
O979        O  0.05918940  0.65866434  0.89537864    -0.59900
H980        H  0.01662489  0.65316618  0.89461499     0.14600
H981        H  0.94632607  0.66933526  0.86692254     0.46400
H982        H  0.01277252  0.58875048  0.84707755     0.41800
H983        H  0.06246416  0.65515371  0.91102381     0.45300
H984        H  0.98420653  0.57414040  0.89241518     0.36700
C985        C  0.22494494  0.59710729  0.12616830    -0.27500
C986        C  0.23702916  0.61659876  0.12352178     0.02100
C987        C  0.22590892  0.63678689  0.12124178     0.30200
C988        C  0.20285923  0.63735158  0.12162643    -0.19300
C989        C  0.19053878  0.61787377  0.12426525    -0.28700
C990        C  0.20184897  0.59758531  0.12651946     0.44200
C991        C  0.26130797  0.61588446  0.12329497     0.05400
O992        O  0.23747423  0.65605829  0.11862161    -0.57200
H993        H  0.19463544  0.65311391  0.11978981     0.18300
O994        O  0.19059022  0.57811606  0.12898625    -0.63900
H995        H  0.23346707  0.58148481  0.12791170     0.16800
C996        C  0.27324897  0.61303582  0.14294693     0.29000
C997        C  0.29632637  0.61353406  0.14257887    -0.24800
C998        C  0.30781992  0.61681139  0.12268061    -0.24100
C999        C  0.29565548  0.61922140  0.10289865     0.40500
C1000       C  0.27258111  0.61894822  0.10339417    -0.26600
O1001       O  0.26247719  0.60998606  0.16261105    -0.58500
H1002       H  0.30521227  0.61144557  0.15795266     0.16100
O1003       O  0.30604273  0.62238147  0.08304695    -0.59900
H1004       H  0.26342183  0.62119504  0.08819307     0.14600
H1005       H  0.18895257  0.57613718  0.14514465     0.46400
H1006       H  0.25970163  0.62505508  0.16836513     0.41800
H1007       H  0.30728445  0.60746939  0.07643716     0.45300
H1008       H  0.24088403  0.66111053  0.13380330     0.36700
C1009       C  0.02226549  0.60799275  0.13497264    -0.27500
C1010       C  0.01126442  0.62717098  0.12810830     0.02100
C1011       C  0.02381413  0.64543759  0.12102710     0.30200
C1012       C  0.04688205  0.64417754  0.12057883    -0.19300
C1013       C  0.05784632  0.62471114  0.12674991    -0.28700
C1014       C  0.04526558  0.60658331  0.13420800     0.44200
C1015       C  0.98675482  0.62774533  0.12811041     0.05400
O1016       O  0.01371812  0.66447145  0.11410527    -0.57200
H1017       H  0.05617776  0.65835651  0.11492899     0.18300
O1018       O  0.05520181  0.58735737  0.14083265    -0.63900
H1019       H  0.01298335  0.59398853  0.14104971     0.16800
C1020       C  0.97440707  0.61053476  0.11846576     0.29000
C1021       C  0.95134185  0.61136825  0.11861022    -0.24800
C1022       C  0.94018045  0.62931023  0.12804226    -0.24100
C1023       C  0.95246543  0.64651045  0.13771602     0.40500
C1024       C  0.97554777  0.64556287  0.13782993    -0.26600
O1025       O  0.98475015  0.59338801  0.10788331    -0.58500
H1026       H  0.94216105  0.59811402  0.11087133     0.16100
O1027       O  0.94211555  0.66419592  0.14732167    -0.59900
H1028       H  0.98471682  0.65873139  0.14570635     0.14600
H1029       H  0.05798934  0.58926001  0.15685279     0.46400
H1030       H  0.98226114  0.58027226  0.11734437     0.41800
H1031       H  0.93927543  0.65963587  0.16277166     0.45300
H1032       H  0.01061969  0.66215564  0.09820832     0.36700
C1033       C  0.14330956  0.63333395  0.02495491    -0.27500
C1034       C  0.12797709  0.62126987  0.01248448     0.02100
C1035       C  0.11170181  0.60874234  0.02341256     0.30200
C1036       C  0.11096627  0.60839123  0.04647538    -0.19300
C1037       C  0.12596491  0.62089673  0.05885350    -0.28700
C1038       C  0.14232728  0.63328690  0.04798073     0.44200
C1039       C  0.12899005  0.62190570  0.98810755     0.05400
O1040       O  0.09620881  0.59711406  0.01169385    -0.57200
H1041       H  0.09830212  0.59881832  0.05469881     0.18300
O1042       O  0.15763746  0.64514032  0.05973119    -0.63900
H1043       H  0.15616637  0.64270428  0.01680910     0.16800
C1044       C  0.12826267  0.64207100  0.97663998     0.29000
C1045       C  0.12828624  0.64220832  0.95356134    -0.24800
C1046       C  0.12926129  0.62240103  0.94152286    -0.24100
C1047       C  0.13060436  0.60223427  0.95312711     0.40500
C1048       C  0.13036904  0.60213620  0.97619097    -0.26600
O1049       O  0.12641075  0.66165438  0.98784530    -0.58500
H1050       H  0.12725751  0.65791765  0.94510651     0.16100
O1051       O  0.13178312  0.58246295  0.94219090    -0.59900
H1052       H  0.13126685  0.58651619  0.98483636     0.14600
H1053       H  0.16928423  0.63436457  0.06374854     0.46400
H1054       H  0.14127619  0.66846917  0.98712901     0.41800
H1055       H  0.14778186  0.57940196  0.94059602     0.45300
H1056       H  0.08450628  0.60796795  0.00808344     0.36700
C1057       C  0.60682527  0.23044107  0.13072778    -0.27500
C1058       C  0.62414197  0.24162841  0.12019441     0.02100
C1059       C  0.64082735  0.22941755  0.10962117     0.30200
C1060       C  0.64013096  0.20631833  0.10990437    -0.19300
C1061       C  0.62265232  0.19510193  0.12019976    -0.28700
C1062       C  0.60585175  0.20736721  0.13057822     0.44200
C1063       C  0.62479827  0.26602689  0.12088888     0.05400
O1064       O  0.65835374  0.23992120  0.09986233    -0.57200
H1065       H  0.65322775  0.19714827  0.10189210     0.18300
O1066       O  0.58901082  0.19696747  0.14154502    -0.63900
H1067       H  0.59397388  0.23966836  0.13906540     0.16800
C1068       C  0.62411730  0.27863833  0.10141948     0.29000
C1069       C  0.62411740  0.30168706  0.10259477    -0.24800
C1070       C  0.62459824  0.31260740  0.12307984    -0.24100
C1071       C  0.62549184  0.29985768  0.14258093     0.40500
C1072       C  0.62541853  0.27680516  0.14134561    -0.26600
O1073       O  0.62299540  0.26860386  0.08116561    -0.58500
H1074       H  0.62345019  0.31101101  0.08736303     0.11300
O1075       O  0.62609071  0.30964994  0.16297376    -0.59900
H1076       H  0.62591784  0.26726256  0.15645668     0.14600
H1077       H  0.57642682  0.19694307  0.13107499     0.46400
H1078       H  0.60706019  0.26616657  0.07845910     0.41800
H1079       H  0.64199124  0.31099453  0.16661907     0.45300
H1080       H  0.65620605  0.23793250  0.08376957     0.36700
C1081       C  0.63770488  0.27506033  0.88756069    -0.27500
C1082       C  0.62950679  0.26401499  0.86894678     0.02100
C1083       C  0.62092959  0.27638755  0.85125679     0.30200
C1084       C  0.62083275  0.29944478  0.85226791    -0.19300
C1085       C  0.62916578  0.31057784  0.87083576    -0.28700
C1086       C  0.63764479  0.29811364  0.88860508     0.44200
C1087       C  0.62967841  0.23958729  0.86835284     0.05400
O1088       O  0.61272773  0.26609884  0.83283808    -0.57200
H1089       H  0.61418186  0.30862844  0.83844592     0.18300
O1090       O  0.64605619  0.30821629  0.90703252    -0.63900
H1091       H  0.64408959  0.26574704  0.90142185     0.16800
C1092       C  0.64942237  0.22766847  0.87113047     0.29000
C1093       C  0.64908106  0.20456145  0.87115486    -0.24800
C1094       C  0.62914827  0.19293151  0.86865315    -0.24100
C1095       C  0.60940278  0.20500800  0.86560947     0.40500
C1096       C  0.60983019  0.22808530  0.86542844    -0.26600
O1097       O  0.66922209  0.23849168  0.87306211    -0.58500
H1098       H  0.66450427  0.19575948  0.87324358     0.16100
O1099       O  0.58960230  0.19451036  0.86241767    -0.59900
H1100       H  0.59450421  0.23706068  0.86329733     0.14600
H1101       H  0.66195600  0.31042890  0.90383639     0.46400
H1102       H  0.67315976  0.23754956  0.88890588     0.41800
H1103       H  0.58258787  0.19399606  0.87718981     0.45300
H1104       H  0.62561875  0.26405344  0.82298371     0.36700
C1105       C  0.64331088  0.11689640  0.97137912    -0.27500
C1106       C  0.62515612  0.12614024  0.98237375     0.02100
C1107       C  0.60772856  0.13519646  0.96990757     0.30200
C1108       C  0.60863456  0.13484351  0.94679911    -0.19300
C1109       C  0.62685709  0.12570637  0.93579114    -0.28700
C1110       C  0.64423387  0.11655619  0.94831617     0.44200
C1111       C  0.62487652  0.12663691  0.00683958     0.05400
O1112       O  0.59038812  0.14552552  0.98018968    -0.57200
H1113       H  0.59526001  0.14220803  0.93748222     0.18300
O1114       O  0.66215039  0.10709060  0.93822342    -0.63900
H1115       H  0.65678626  0.10978000  0.98074776     0.16800
C1116       C  0.60726278  0.11739397  0.01884239     0.29000
C1117       C  0.60711834  0.11857860  0.04188421    -0.24800
C1118       C  0.62470967  0.12833716  0.05341712    -0.24100
C1119       C  0.64259814  0.13713614  0.04143301     0.40500
C1120       C  0.64257520  0.13623528  0.01833619    -0.26600
O1121       O  0.59029922  0.10679758  0.00823994    -0.58500
H1122       H  0.59338300  0.11139039  0.05079148     0.16100
O1123       O  0.66001740  0.14694143  0.05206147    -0.59900
H1124       H  0.65630403  0.14331834  0.00933606     0.14600
H1125       H  0.65778468  0.09157033  0.93541624     0.46400
H1126       H  0.59533391  0.09133554  0.00650630     0.41800
H1127       H  0.65563283  0.16259131  0.05392405     0.45300
H1128       H  0.57728840  0.13614816  0.97722644     0.36700
C1129       C  0.61399812  0.77613893  0.89460789    -0.27500
C1130       C  0.62999419  0.76363924  0.88350975     0.02100
C1131       C  0.64673937  0.77448911  0.87160416     0.30200
C1132       C  0.64697330  0.79751193  0.87041902    -0.19300
C1133       C  0.63047752  0.81001480  0.88079038    -0.28700
C1134       C  0.61405734  0.79918332  0.89319311     0.44200
C1135       C  0.62849022  0.73930878  0.88344205     0.05400
O1136       O  0.66275118  0.76269576  0.86078882    -0.57200
H1137       H  0.65975611  0.80558433  0.86087535     0.18300
O1138       O  0.59835882  0.81099216  0.90444208    -0.63900
H1139       H  0.60109633  0.76798386  0.90391541     0.16800
C1140       C  0.62882075  0.72708614  0.90316924     0.29000
C1141       C  0.62771770  0.70402497  0.90244918    -0.24800
C1142       C  0.62626964  0.69281516  0.88216391    -0.24100
C1143       C  0.62538714  0.70525280  0.86246223     0.40500
C1144       C  0.62661886  0.72823157  0.86325075    -0.26600
O1145       O  0.63056711  0.73749848  0.92318891    -0.58500
H1146       H  0.62831447  0.69491624  0.91781375     0.16100
O1147       O  0.62367480  0.69520542  0.84225610    -0.59900
H1148       H  0.62602359  0.73749597  0.84796939     0.14600
H1149       H  0.58504630  0.81063360  0.89492350     0.46400
H1150       H  0.64663295  0.73947733  0.92561453     0.41800
H1151       H  0.60759605  0.69425532  0.83928821     0.45300
H1152       H  0.67442722  0.76007862  0.87195007     0.36700
C1153       C  0.64848859  0.97718834  0.86155023    -0.27500
C1154       C  0.62913632  0.98881646  0.86678564     0.02100
C1155       C  0.60981489  0.97685589  0.87177822     0.30200
C1156       C  0.61018955  0.95376427  0.87192729    -0.19300
C1157       C  0.62975242  0.94212097  0.86747014    -0.28700
C1158       C  0.64893986  0.95410053  0.86190662     0.44200
C1159       C  0.62935349  0.01334880  0.86725356     0.05400
O1160       O  0.59058237  0.98755922  0.87707632    -0.57200
H1161       H  0.59521909  0.94497032  0.87618820     0.18300
O1162       O  0.66828291  0.94348244  0.85685726    -0.63900
H1163       H  0.66336397  0.98605349  0.85712511     0.16800
C1164       C  0.64547425  0.02498467  0.87937332     0.29000
C1165       C  0.64532978  0.04809890  0.87965663    -0.24800
C1166       C  0.62908383  0.05998092  0.86821709    -0.24100
C1167       C  0.61291494  0.04837800  0.85616306     0.40500
C1168       C  0.61328666  0.02528629  0.85555855    -0.26600
O1169       O  0.66078369  0.01388624  0.89184066    -0.58500
H1170       H  0.65771413  0.05675070  0.88923377     0.16100
O1171       O  0.59724465  0.05945887  0.84414756    -0.59900
H1172       H  0.60102766  0.01667196  0.84579637     0.14600
H1173       H  0.66758869  0.94077059  0.84074261     0.46400
H1174       H  0.67498951  0.01568689  0.88392795     0.41800
H1175       H  0.58386593  0.05955287  0.85356985     0.45300
H1176       H  0.59140642  0.99011607  0.89321280     0.36700
C1177       C  0.60135399  0.77696245  0.11465840    -0.27500
C1178       C  0.62070870  0.76545935  0.11990431     0.02100
C1179       C  0.63983699  0.77716708  0.12569951     0.30200
C1180       C  0.63948696  0.80019526  0.12615943    -0.19300
C1181       C  0.62006375  0.81191575  0.12121472    -0.28700
C1182       C  0.60083392  0.80004191  0.11547847     0.44200
C1183       C  0.62072660  0.74117687  0.11978831     0.05400
O1184       O  0.65910310  0.76620240  0.13034469    -0.57200
H1185       H  0.65449510  0.80886686  0.13055182     0.18300
O1186       O  0.58162015  0.81075352  0.11013709    -0.63900
H1187       H  0.58654311  0.76798825  0.11018205     0.16800
C1188       C  0.62218041  0.72939134  0.13967082     0.29000
C1189       C  0.62264944  0.70637835  0.13936254    -0.24800
C1190       C  0.62161538  0.69470181  0.11932471    -0.24100
C1191       C  0.61998161  0.70664908  0.09936629     0.40500
C1192       C  0.61950386  0.72973867  0.09974763    -0.26600
O1193       O  0.62324042  0.74025888  0.15949948    -0.58500
H1194       H  0.62390851  0.69768238  0.15492571     0.16100
O1195       O  0.61913732  0.69603883  0.07939796    -0.59900
H1196       H  0.61841147  0.73876586  0.08435423     0.14600
H1197       H  0.57285632  0.81098777  0.12395540     0.46400
H1198       H  0.60768066  0.74299227  0.16371678     0.41800
H1199       H  0.60318825  0.69401764  0.07628416     0.45300
H1200       H  0.66016099  0.76604663  0.14666341     0.36700
C1201       C  0.64102805  0.97920808  0.11214255    -0.27500
C1202       C  0.62412197  0.99119959  0.12250042     0.02100
C1203       C  0.60719432  0.97965873  0.13350850     0.30200
C1204       C  0.60711568  0.95658706  0.13365814    -0.19300
C1205       C  0.62407580  0.94458799  0.12340734    -0.28700
C1206       C  0.64124780  0.95612012  0.11274435     0.44200
C1207       C  0.62400388  0.01567005  0.12138471     0.05400
O1208       O  0.59068419  0.99077476  0.14428841    -0.57200
H1209       H  0.59386111  0.94805003  0.14208551     0.18300
O1210       O  0.65773584  0.94501141  0.10192298    -0.63900
H1211       H  0.65394303  0.98775392  0.10322518     0.16800
C1212       C  0.64268994  0.02809700  0.12745241     0.29000
C1213       C  0.64199953  0.05116595  0.12655161    -0.24800
C1214       C  0.62283522  0.06227407  0.11963473    -0.24100
C1215       C  0.60423918  0.04978339  0.11328306     0.40500
C1216       C  0.60495733  0.02673203  0.11416401    -0.26600
O1217       O  0.66131359  0.01787943  0.13532126    -0.58500
H1218       H  0.65644439  0.06037846  0.13167774     0.16100
O1219       O  0.58524974  0.05985697  0.10617942    -0.59900
H1220       H  0.59056610  0.01742917  0.10905142     0.14600
H1221       H  0.67028603  0.94465692  0.11242409     0.46400
H1222       H  0.67240878  0.01924322  0.12337017     0.41800
H1223       H  0.58712755  0.06163783  0.09002563     0.45300
H1224       H  0.59675362  0.99412834  0.15910749     0.36700
C1225       C  0.61332946  0.89675967  0.02207623    -0.27500
C1226       C  0.62269195  0.87892293  0.01059247     0.02100
C1227       C  0.63098878  0.86078891  0.02258910     0.30200
C1228       C  0.63060849  0.86107249  0.04564769    -0.19300
C1229       C  0.62132255  0.87892892  0.05700008    -0.28700
C1230       C  0.61241451  0.89673439  0.04513294     0.44200
C1231       C  0.62432546  0.87964535  0.98620382     0.05400
O1232       O  0.63942940  0.84269225  0.01193349    -0.57200
H1233       H  0.63729757  0.84717903  0.05470686     0.18300
O1234       O  0.60334948  0.91443528  0.05593964    -0.63900
H1235       H  0.60713814  0.91096353  0.01317760     0.16800
C1236       C  0.60575383  0.88427330  0.97303872     0.29000
C1237       C  0.60772332  0.88457994  0.95005352    -0.24800
C1238       C  0.62810542  0.88044767  0.93974896    -0.24100
C1239       C  0.64676642  0.87612267  0.95299592     0.40500
C1240       C  0.64475611  0.87576467  0.97598445    -0.26600
O1241       O  0.58538634  0.88738869  0.98244381    -0.58500
H1242       H  0.59309545  0.88780686  0.94028010     0.16100
O1243       O  0.66686051  0.87137536  0.94372257    -0.59900
H1244       H  0.65926752  0.87242051  0.98589391     0.14600
H1245       H  0.61593877  0.92435847  0.05924298     0.46400
H1246       H  0.58222705  0.90336063  0.98080308     0.41800
H1247       H  0.67496398  0.88558554  0.94353560     0.45300
H1248       H  0.62650620  0.83316432  0.00879822     0.36700
C1249       C  0.27824186  0.37550944  0.85977931    -0.27500
C1250       C  0.26692385  0.37382675  0.87983474     0.02100
C1251       C  0.27888081  0.37157906  0.89956551     0.30200
C1252       C  0.30198840  0.37106141  0.89906201    -0.19300
C1253       C  0.31351376  0.37289840  0.87897974    -0.28700
C1254       C  0.30132750  0.37510147  0.85919915     0.44200
C1255       C  0.24258155  0.37429933  0.87986268     0.05400
O1256       O  0.26808402  0.36921472  0.91931318    -0.57200
H1257       H  0.31087540  0.36917823  0.91446184     0.18300
O1258       O  0.31173106  0.37746563  0.83924662    -0.63900
H1259       H  0.26910567  0.37732657  0.84450736     0.16800
C1260       C  0.23100796  0.39286357  0.88757680     0.29000
C1261       C  0.20790283  0.39316809  0.88691518    -0.24800
C1262       C  0.19604628  0.37501944  0.87866522    -0.24100
C1263       C  0.20780310  0.35647383  0.87080941     0.40500
C1264       C  0.23087726  0.35626945  0.87142409    -0.26600
O1265       O  0.24215582  0.41080028  0.89570596    -0.58500
H1266       H  0.19925441  0.40757738  0.89300621     0.16100
O1267       O  0.19697361  0.33851840  0.86228786    -0.59900
H1268       H  0.23970021  0.34198444  0.86527015     0.14600
H1269       H  0.31226877  0.36240988  0.83287381     0.46400
H1270       H  0.24543528  0.42007534  0.88264499     0.41800
H1271       H  0.19499297  0.34184160  0.84639023     0.45300
H1272       H  0.26777009  0.38419473  0.92586674     0.36700
C1273       C  0.22422554  0.35059371  0.13213905    -0.27500
C1274       C  0.23584508  0.36995987  0.12745187     0.02100
C1275       C  0.22431821  0.38953285  0.12299584     0.30200
C1276       C  0.20124832  0.38956323  0.12313882    -0.19300
C1277       C  0.18938811  0.37014766  0.12770412    -0.28700
C1278       C  0.20114523  0.35051279  0.13221487     0.44200
C1279       C  0.26007426  0.36951989  0.12705127     0.05400
O1280       O  0.23548386  0.40858626  0.11807938    -0.57200
H1281       H  0.19264788  0.40480091  0.11948589     0.18300
O1282       O  0.19033134  0.33128184  0.13722880    -0.63900
H1283       H  0.23310725  0.33548427  0.13569108     0.16800
C1284       C  0.27229972  0.37426283  0.14613631     0.29000
C1285       C  0.29535447  0.37370054  0.14544036    -0.24800
C1286       C  0.30649794  0.36842529  0.12577508    -0.24100
C1287       C  0.29404164  0.36364580  0.10663703     0.40500
C1288       C  0.27098232  0.36412486  0.10745023    -0.26600
O1289       O  0.26183268  0.37975888  0.16543257    -0.58500
H1290       H  0.30450694  0.37756471  0.16030771     0.16100
O1291       O  0.30414672  0.35793305  0.08721044    -0.59900
H1292       H  0.26155995  0.36030402  0.09273141     0.14600
H1293       H  0.18960447  0.32296751  0.12315245     0.46400
H1294       H  0.25951365  0.36557597  0.17323074     0.41800
H1295       H  0.30482565  0.37176218  0.07850018     0.45300
H1296       H  0.23816988  0.41582208  0.13250555     0.36700
C1297       C  0.11812346  0.38964098  0.97891100    -0.27500
C1298       C  0.12676787  0.37120568  0.98990680     0.02100
C1299       C  0.13554020  0.35364137  0.97750403     0.30200
C1300       C  0.13558896  0.35468869  0.95443037    -0.19300
C1301       C  0.12725042  0.37329269  0.94340242    -0.28700
C1302       C  0.11830174  0.39079176  0.95587622     0.44200
C1303       C  0.12651658  0.37054340  0.01431432     0.05400
O1304       O  0.14441507  0.33554557  0.98779262    -0.57200
H1305       H  0.14259870  0.34110694  0.94515882     0.18300
O1306       O  0.10944034  0.40899645  0.94575983    -0.63900
H1307       H  0.11101014  0.40312882  0.98824335     0.16800
C1308       C  0.13664216  0.38735085  0.02671587     0.29000
C1309       C  0.13560325  0.38689683  0.04975056    -0.24800
C1310       C  0.12459539  0.36977395  0.06081026    -0.24100
C1311       C  0.11469866  0.35277895  0.04840417     0.40500
C1312       C  0.11562047  0.35331766  0.02530743    -0.26600
O1313       O  0.14823720  0.40386141  0.01644952    -0.58500
H1314       H  0.14362589  0.39992715  0.05900537     0.16100
O1315       O  0.10318460  0.33619429  0.05860937    -0.59900
H1316       H  0.10750049  0.34044115  0.01592846     0.14600
H1317       H  0.09383226  0.40507688  0.94275358     0.46400
H1318       H  0.13861621  0.41707725  0.01727883     0.41800
H1319       H  0.11363695  0.32364432  0.05949338     0.45300
H1320       H  0.16003066  0.33948620  0.99070330     0.36700
C1321       C  0.77878713  0.39405802  0.85707867    -0.27500
C1322       C  0.76692627  0.37503323  0.86253520     0.02100
C1323       C  0.77823118  0.35571060  0.86844763     0.30200
C1324       C  0.80128471  0.35565057  0.86922051    -0.19300
C1325       C  0.81334782  0.37485108  0.86435710    -0.28700
C1326       C  0.80186011  0.39411024  0.85792933     0.44200
C1327       C  0.74270662  0.37583399  0.86344949     0.05400
O1328       O  0.76683878  0.33691322  0.87381471    -0.57200
H1329       H  0.80969438  0.34065211  0.87410004     0.18300
O1330       O  0.81296462  0.41292159  0.85202112    -0.63900
H1331       H  0.77009775  0.40897697  0.85241864     0.16800
C1332       C  0.73211674  0.38482200  0.88197914     0.29000
C1333       C  0.70911244  0.38456650  0.88330109    -0.24800
C1334       C  0.69636638  0.37576402  0.86605044    -0.24100
C1335       C  0.70708464  0.36696845  0.84732572     0.40500
C1336       C  0.73015801  0.36699640  0.84617884    -0.26600
O1337       O  0.74418534  0.39334550  0.89913457    -0.58500
H1338       H  0.70122803  0.39146165  0.89778934     0.16100
O1339       O  0.69524269  0.35800537  0.83024028    -0.59900
H1340       H  0.73829323  0.35998201  0.83188524     0.14600
H1341       H  0.81274602  0.42241590  0.86534575     0.46400
H1342       H  0.74622850  0.40914273  0.89548834     0.41800
H1343       H  0.69299058  0.34233126  0.83434778     0.45300
H1344       H  0.76389460  0.33812497  0.88986079     0.36700
C1345       C  0.98154382  0.35516923  0.87481743    -0.27500
C1346       C  0.99262462  0.37516069  0.87117566     0.02100
C1347       C  0.98034301  0.39429117  0.86656841     0.30200
C1348       C  0.95728430  0.39338945  0.86627265    -0.19300
C1349       C  0.94605268  0.37353836  0.87046381    -0.28700
C1350       C  0.95844996  0.35423694  0.87455518     0.44200
C1351       C  0.01701156  0.37585810  0.87219359     0.05400
O1352       O  0.99080370  0.41369070  0.86136901    -0.57200
H1353       H  0.94819849  0.40833092  0.86256488     0.18300
O1354       O  0.94826562  0.33438910  0.87832227    -0.63900
H1355       H  0.99085126  0.34028152  0.87820549     0.16800
C1356       C  0.02799197  0.39015798  0.88690223     0.29000
C1357       C  0.05107034  0.39072477  0.88742149    -0.24800
C1358       C  0.06345112  0.37661590  0.87391654    -0.24100
C1359       C  0.05249578  0.36219673  0.85933356     0.40500
C1360       C  0.02943227  0.36188429  0.85855898    -0.26600
O1361       O  0.01631957  0.40326745  0.90118645    -0.58500
H1362       H  0.05930957  0.40171358  0.89887712     0.16100
O1363       O  0.06419029  0.34854993  0.84556788    -0.59900
H1364       H  0.02120135  0.35083101  0.84716083     0.14600
H1365       H  0.94635478  0.33356768  0.89455465     0.46400
H1366       H  0.01281304  0.39365603  0.91394362     0.41800
H1367       H  0.06782113  0.35770802  0.83250821     0.45300
H1368       H  0.98764437  0.42386993  0.87380220     0.36700
C1369       C  0.77057739  0.36014042  0.11284434    -0.27500
C1370       C  0.76028959  0.37964859  0.11980382     0.02100
C1371       C  0.77327242  0.39787394  0.12589457     0.30200
C1372       C  0.79628147  0.39637913  0.12511028    -0.19300
C1373       C  0.80668440  0.37677830  0.11834472    -0.28700
C1374       C  0.79357823  0.35860602  0.11201319     0.44200
C1375       C  0.73597758  0.38069773  0.12070273     0.05400
O1376       O  0.76361847  0.41720116  0.13263255    -0.57200
H1377       H  0.80599700  0.41054792  0.13005434     0.18300
O1378       O  0.80300201  0.33927138  0.10498242    -0.63900
H1379       H  0.76070739  0.34597851  0.10818449     0.16800
C1380       C  0.72330800  0.37747348  0.10155632     0.29000
C1381       C  0.70028470  0.37764902  0.10281736    -0.24800
C1382       C  0.68949640  0.38075345  0.12311833    -0.24100
C1383       C  0.70230057  0.38442969  0.14225924     0.40500
C1384       C  0.72536320  0.38434021  0.14092491    -0.26600
O1385       O  0.73333301  0.37471525  0.08144598    -0.58500
H1386       H  0.69088277  0.37507441  0.08782752     0.16100
O1387       O  0.69254584  0.38795329  0.16236987    -0.59900
H1388       H  0.73501632  0.38682528  0.15577883     0.14600
H1389       H  0.80481335  0.34102050  0.08881137     0.46400
H1390       H  0.73253193  0.35868166  0.07837532     0.41800
H1391       H  0.69062667  0.40416403  0.16341772     0.45300
H1392       H  0.76081172  0.42560505  0.11888583     0.36700
C1393       C  0.97465863  0.35539366  0.11261914    -0.27500
C1394       C  0.98549766  0.37131138  0.12554252     0.02100
C1395       C  0.97287802  0.38717077  0.13692025     0.30200
C1396       C  0.94992087  0.38727475  0.13485876    -0.19300
C1397       C  0.93909554  0.37135092  0.12199278    -0.28700
C1398       C  0.95162344  0.35521517  0.11093824     0.44200
C1399       C  0.00993924  0.37164428  0.12653094     0.05400
O1400       O  0.98280636  0.40257224  0.15021133    -0.57200
H1401       H  0.94050574  0.39966019  0.14367547     0.18300
O1402       O  0.94159512  0.33953376  0.09806051    -0.63900
H1403       H  0.98409602  0.34330806  0.10344136     0.16800
C1404       C  0.02202550  0.35245353  0.13150870     0.29000
C1405       C  0.04510134  0.35308243  0.13170466    -0.24800
C1406       C  0.05655528  0.37269702  0.12700046    -0.24100
C1407       C  0.04439118  0.39199736  0.12236549     0.40500
C1408       C  0.02132114  0.39131496  0.12206996    -0.26600
O1409       O  0.01140409  0.33324284  0.13705439    -0.58500
H1410       H  0.05402512  0.33810888  0.13566947     0.16100
O1411       O  0.05478519  0.41162705  0.11806773    -0.59900
H1412       H  0.01227967  0.40619289  0.11800818     0.14600
H1413       H  0.94044730  0.34626983  0.08319471     0.46400
H1414       H  0.01364434  0.32318558  0.12433698     0.41800
H1415       H  0.05645254  0.41212347  0.10179696     0.45300
H1416       H  0.98435730  0.39530515  0.16478577     0.36700
C1417       C  0.88471475  0.39333940  0.01806338    -0.27500
C1418       C  0.87304918  0.37723268  0.00615447     0.02100
C1419       C  0.86126626  0.36090893  0.01779843     0.30200
C1420       C  0.86182411  0.36046132  0.04085887    -0.19300
C1421       C  0.87355354  0.37649595  0.05276002    -0.28700
C1422       C  0.88492018  0.39314353  0.04117051     0.44200
C1423       C  0.87407484  0.37690575  0.98167387     0.05400
O1424       O  0.84909171  0.34532462  0.00678232    -0.57200
H1425       H  0.85275272  0.34769783  0.04948178     0.18300
O1426       O  0.89673832  0.40897521  0.05221591    -0.63900
H1427       H  0.89415905  0.40580936  0.00943323     0.16800
C1428       C  0.86938714  0.39583379  0.96902789     0.29000
C1429       C  0.87065529  0.39493036  0.94594901    -0.24800
C1430       C  0.87654979  0.37529648  0.93508648    -0.24100
C1431       C  0.88121701  0.35637427  0.94782279     0.40500
C1432       C  0.88015077  0.35736821  0.97084262    -0.26600
O1433       O  0.86265874  0.41499751  0.97902882    -0.58500
H1434       H  0.86675762  0.40961809  0.93653949     0.16100
O1435       O  0.88751129  0.33696342  0.93804089    -0.59900
H1436       H  0.88427281  0.34277756  0.98031115     0.14600
H1437       H  0.91160885  0.40249979  0.05440180     0.46400
H1438       H  0.87534849  0.42525765  0.97774324     0.41800
H1439       H  0.87384049  0.32802568  0.93707170     0.45300
H1440       H  0.83436575  0.35213028  0.00460695     0.36700
C1441       C  0.39533968  0.76606081  0.12803384    -0.27500
C1442       C  0.37479689  0.75548769  0.12686497     0.02100
C1443       C  0.35540854  0.76829714  0.12733151     0.30200
C1444       C  0.35678599  0.79134035  0.12835758    -0.19300
C1445       C  0.37738799  0.80204455  0.12891400    -0.28700
C1446       C  0.39677374  0.78906187  0.12914436     0.44200
C1447       C  0.37385817  0.73109877  0.12525271     0.05400
O1448       O  0.33503021  0.75847681  0.12641351    -0.57200
H1449       H  0.34164060  0.80084355  0.12831807     0.18300
O1450       O  0.41727781  0.79859509  0.13015326    -0.63900
H1451       H  0.41039113  0.75640487  0.12818222     0.16800
C1452       C  0.38487421  0.71977690  0.10817972     0.29000
C1453       C  0.38418080  0.69668472  0.10724592    -0.24800
C1454       C  0.37301315  0.68456667  0.12349428    -0.24100
C1455       C  0.36171133  0.69594301  0.14037424     0.40500
C1456       C  0.36219940  0.71899678  0.14114848    -0.26600
O1457       O  0.39589267  0.73120127  0.09204495    -0.58500
H1458       H  0.39284485  0.68823210  0.09408822     0.16100
O1459       O  0.35005730  0.68470381  0.15618527    -0.59900
H1460       H  0.35368345  0.72745874  0.15439723     0.14600
H1461       H  0.42068397  0.79975811  0.14611506     0.46400
H1462       H  0.41177134  0.72958871  0.09566754     0.41800
H1463       H  0.33537640  0.68188852  0.14950442     0.45300
H1464       H  0.33190607  0.75653279  0.11047155     0.36700
C1465       C  0.37958316  0.72522734  0.85411074    -0.27500
C1466       C  0.37292584  0.73589033  0.87353493     0.02100
C1467       C  0.36749159  0.72324142  0.89220286     0.30200
C1468       C  0.36888813  0.70024639  0.89131818    -0.19300
C1469       C  0.37554657  0.68947538  0.87188591    -0.28700
C1470       C  0.38078095  0.70220223  0.85311495     0.44200
C1471       C  0.37176969  0.76022638  0.87414258     0.05400
O1472       O  0.36092848  0.73321521  0.91142923    -0.57200
H1473       H  0.36459447  0.69081659  0.90588155     0.18300
O1474       O  0.38773243  0.69239972  0.83393825    -0.63900
H1475       H  0.38371125  0.73480738  0.83959658     0.16800
C1476       C  0.39061985  0.77307612  0.86996971     0.29000
C1477       C  0.38920004  0.79608721  0.87047771    -0.24800
C1478       C  0.36902558  0.80669340  0.87485426    -0.24100
C1479       C  0.35013383  0.79371977  0.87908011     0.40500
C1480       C  0.35165877  0.77068108  0.87880087    -0.26600
O1481       O  0.41067857  0.76324827  0.86622999    -0.58500
H1482       H  0.40399149  0.80563350  0.86736921     0.16100
O1483       O  0.33026802  0.80330205  0.88417409    -0.59900
H1484       H  0.33703928  0.76091972  0.88207965     0.14600
H1485       H  0.37440479  0.69156664  0.82446574     0.46400
H1486       H  0.41304314  0.76426863  0.85007672     0.41800
H1487       H  0.32194511  0.80369362  0.87009012     0.45300
H1488       H  0.37476134  0.73617531  0.91966218     0.36700
C1489       C  0.35297270  0.85936767  0.97872483    -0.27500
C1490       C  0.37238570  0.86564558  0.98975218     0.02100
C1491       C  0.39054361  0.87308431  0.97728192     0.30200
C1492       C  0.38904589  0.87435529  0.95431531    -0.19300
C1493       C  0.36945381  0.86865839  0.94329200    -0.28700
C1494       C  0.35135713  0.86091615  0.95573343     0.44200
C1495       C  0.37339696  0.86504275  0.01422935     0.05400
O1496       O  0.40972752  0.87961028  0.98739002    -0.57200
H1497       H  0.40320551  0.88026870  0.94514522     0.18300
O1498       O  0.33202336  0.85477541  0.94567289    -0.63900
H1499       H  0.33898697  0.85317646  0.98796778     0.16800
C1500       C  0.35686206  0.87512818  0.02709672     0.29000
C1501       C  0.35865443  0.87530649  0.05010221    -0.24800
C1502       C  0.37691923  0.86576320  0.06069399    -0.24100
C1503       C  0.39338787  0.85553226  0.04787922     0.40500
C1504       C  0.39138953  0.85496927  0.02486678    -0.26600
O1505       O  0.33952740  0.88592701  0.01729632    -0.58500
H1506       H  0.34592127  0.88343954  0.05966901     0.16100
O1507       O  0.41111172  0.84541690  0.05768440    -0.59900
H1508       H  0.40402612  0.84672157  0.01528013     0.14600
H1509       H  0.33373550  0.83882496  0.94247640     0.46400
H1510       H  0.32643507  0.87646220  0.01993448     0.41800
H1511       H  0.42324214  0.85637125  0.05699015     0.45300
H1512       H  0.40737308  0.89530542  0.99133425     0.36700
C1513       C  0.36337539  0.22547612  0.88929379    -0.27500
C1514       C  0.38237080  0.23585027  0.88127782     0.02100
C1515       C  0.39998018  0.22302655  0.87332498     0.30200
C1516       C  0.39843986  0.19996974  0.87355719    -0.19300
C1517       C  0.37922207  0.18945697  0.88124031    -0.28700
C1518       C  0.36158046  0.20249977  0.88912727     0.44200
C1519       C  0.38326784  0.26013584  0.88098079     0.05400
O1520       O  0.41891821  0.23289513  0.86582240    -0.57200
H1521       H  0.41220284  0.19033044  0.86744731     0.18300
O1522       O  0.34271996  0.19300383  0.89727120    -0.63900
H1523       H  0.34974672  0.23528387  0.89545847     0.16800
C1524       C  0.38144653  0.27174832  0.86102187     0.29000
C1525       C  0.38090649  0.29479731  0.86114369    -0.24800
C1526       C  0.38203192  0.30665431  0.88108385    -0.24100
C1527       C  0.38415431  0.29485915  0.90108953     0.40500
C1528       C  0.38455396  0.27177463  0.90090181    -0.26600
O1529       O  0.37978606  0.26068661  0.84134328    -0.58500
H1530       H  0.37931836  0.30337290  0.84554443     0.16100
O1531       O  0.38557416  0.30561601  0.92094625    -0.59900
H1532       H  0.38582020  0.26289298  0.91636775     0.14600
H1533       H  0.33203026  0.19334208  0.88487232     0.46400
H1534       H  0.36381365  0.25772100  0.83941737     0.41800
H1535       H  0.40160480  0.30766732  0.92357101     0.45300
H1536       H  0.41742070  0.23323904  0.84954116     0.36700
C1537       C  0.38261611  0.97455942  0.86940169    -0.27500
C1538       C  0.36704807  0.98583858  0.88229873     0.02100
C1539       C  0.35081455  0.97365668  0.89368422     0.30200
C1540       C  0.35046617  0.95057284  0.89213299    -0.19300
C1541       C  0.36645356  0.93933663  0.87966631    -0.28700
C1542       C  0.38248700  0.95156761  0.86811272     0.44200
C1543       C  0.36786719  0.01029044  0.88327482     0.05400
O1544       O  0.33546083  0.98410442  0.90662095    -0.57200
H1545       H  0.33803293  0.94141516  0.90113993     0.18300
O1546       O  0.39796754  0.94123417  0.85522783    -0.63900
H1547       H  0.39484616  0.98365206  0.86006762     0.16800
C1548       C  0.38765484  0.02133228  0.88848888     0.29000
C1549       C  0.38863004  0.04438315  0.88761298    -0.24800
C1550       C  0.37004621  0.05687726  0.88160771    -0.24100
C1551       C  0.35006361  0.04579582  0.87690932     0.40500
C1552       C  0.34912531  0.02272366  0.87775555    -0.26600
O1553       O  0.40593254  0.00971278  0.89513997    -0.58500
H1554       H  0.40402109  0.05248298  0.89177119     0.16100
O1555       O  0.33138399  0.05725689  0.87123057    -0.59900
H1556       H  0.33382260  0.01449079  0.87352708     0.14600
H1557       H  0.39072313  0.93909867  0.84070977     0.46400
H1558       H  0.41652718  0.01071714  0.88270180     0.41800
H1559       H  0.33193277  0.05855207  0.85492948     0.45300
H1560       H  0.34263886  0.98584388  0.92121968     0.36700
C1561       C  0.36381909  0.26642200  0.10943609    -0.27500
C1562       C  0.36747446  0.25565704  0.12953393     0.02100
C1563       C  0.37221738  0.26805187  0.14852148     0.30200
C1564       C  0.37374547  0.29101150  0.14717635    -0.19300
C1565       C  0.37061060  0.30196171  0.12695353    -0.28700
C1566       C  0.36529684  0.28941198  0.10801780     0.44200
C1567       C  0.36807030  0.23140132  0.13019390     0.05400
O1568       O  0.37577900  0.25780343  0.16838121    -0.57200
H1569       H  0.37761813  0.30022649  0.16199737     0.18300
O1570       O  0.36170643  0.29933691  0.08800279    -0.63900
H1571       H  0.36023221  0.25691506  0.09471933     0.16800
C1572       C  0.34866022  0.21878658  0.12904641     0.29000
C1573       C  0.34993240  0.19571397  0.12924634    -0.24800
C1574       C  0.37049893  0.18495995  0.13054992    -0.24100
C1575       C  0.38991908  0.19786169  0.13165955     0.40500
C1576       C  0.38853128  0.22084506  0.13165023    -0.26600
O1577       O  0.32843363  0.22886147  0.12767440    -0.58500
H1578       H  0.33478801  0.18625673  0.12834512     0.16100
O1579       O  0.41039402  0.18828054  0.13288154    -0.59900
H1580       H  0.40355385  0.23052065  0.13249417     0.14600
H1581       H  0.34563424  0.30241588  0.08756201     0.46400
H1582       H  0.32391539  0.23150889  0.14317506     0.41800
H1583       H  0.41562560  0.18737016  0.11740756     0.45300
H1584       H  0.36090726  0.25593325  0.17494219     0.36700
C1585       C  0.39865015  0.01850550  0.12197413    -0.27500
C1586       C  0.38015135  0.00565470  0.12721293     0.02100
C1587       C  0.36051652  0.01618177  0.13387375     0.30200
C1588       C  0.35945771  0.03925949  0.13473645    -0.19300
C1589       C  0.37784412  0.05219954  0.12914069    -0.28700
C1590       C  0.39761047  0.04155979  0.12277503     0.44200
C1591       C  0.38147519  0.98128033  0.12564485     0.05400
O1592       O  0.34262254  0.00398048  0.14049854    -0.57200
H1593       H  0.34424104  0.04702141  0.14002306     0.18300
O1594       O  0.41597447  0.05347465  0.11702354    -0.63900
H1595       H  0.41386793  0.01062120  0.11686031     0.16800
C1596       C  0.36661584  0.96939545  0.11228588     0.29000
C1597       C  0.36704346  0.94633713  0.11221525    -0.24800
C1598       C  0.38271660  0.93476797  0.12472123    -0.24100
C1599       C  0.39833782  0.94664270  0.13722156     0.40500
C1600       C  0.39760997  0.96975026  0.13765074    -0.26600
O1601       O  0.35164719  0.98017786  0.09916880    -0.58500
H1602       H  0.35518387  0.93744572  0.10220348     0.16100
O1603       O  0.41387502  0.93583950  0.14965536    -0.59900
H1604       H  0.40931483  0.97867734  0.14780916     0.14600
H1605       H  0.41438743  0.05630446  0.10098850     0.46400
H1606       H  0.35986800  0.98400852  0.08555746     0.41800
H1607       H  0.40657993  0.93284641  0.16398802     0.45300
H1608       H  0.33118337  0.00633000  0.12900740     0.36700
C1609       C  0.35985451  0.12986463  0.02898665    -0.27500
C1610       C  0.37829150  0.12156702  0.01769566     0.02100
C1611       C  0.39627751  0.11325659  0.02990856     0.30200
C1612       C  0.39541486  0.11297752  0.05299632    -0.19300
C1613       C  0.37658323  0.12051703  0.06420735    -0.28700
C1614       C  0.35882414  0.12925656  0.05198379     0.44200
C1615       C  0.37825989  0.12140049  0.99322772     0.05400
O1616       O  0.41456501  0.10495782  0.01946552    -0.57200
H1617       H  0.40927610  0.10631093  0.06212680     0.18300
O1618       O  0.34041689  0.13743355  0.06232020    -0.63900
H1619       H  0.34614394  0.13689943  0.01991679     0.16800
C1620       C  0.36023982  0.11254869  0.98147554     0.29000
C1621       C  0.36003126  0.11319089  0.95843102    -0.24800
C1622       C  0.37770958  0.12238071  0.94668123    -0.24100
C1623       C  0.39589653  0.13099979  0.95838969     0.40500
C1624       C  0.39602490  0.13053772  0.98148732    -0.26600
O1625       O  0.34318096  0.10240356  0.99238165    -0.58500
H1626       H  0.34607997  0.10616188  0.94971679     0.16100
O1627       O  0.41345418  0.14022700  0.94748806    -0.59900
H1628       H  0.40988387  0.13766969  0.99025620     0.14600
H1629       H  0.34390426  0.15309076  0.06553562     0.46400
H1630       H  0.33034022  0.11243198  0.99073769     0.41800
H1631       H  0.40939983  0.15593173  0.94535885     0.45300
H1632       H  0.41105298  0.08926424  0.01649308     0.36700
C1633       C  0.86300058  0.01971999  0.60516584    -0.27500
C1634       C  0.87170086  0.00797751  0.62310149     0.02100
C1635       C  0.88089597  0.01963539  0.64099867     0.30200
C1636       C  0.88140317  0.04272018  0.64068642    -0.19300
C1637       C  0.87297326  0.05447120  0.62261655    -0.28700
C1638       C  0.86345986  0.04276954  0.60486605     0.44200
C1639       C  0.87183267  0.98357232  0.62257157     0.05400
O1640       O  0.89056826  0.00855925  0.65822623    -0.57200
H1641       H  0.88886060  0.05142206  0.65441436     0.18300
O1642       O  0.85438844  0.05366030  0.58721269    -0.63900
H1643       H  0.85574235  0.01095393  0.59136810     0.16800
C1644       C  0.86243106  0.97115043  0.63977887     0.29000
C1645       C  0.86407609  0.94816953  0.63960396    -0.24800
C1646       C  0.87443288  0.93712747  0.62205517    -0.24100
C1647       C  0.88300962  0.94952740  0.60434289     0.40500
C1648       C  0.88169790  0.97257531  0.60473061    -0.26600
O1649       O  0.85142135  0.98129655  0.65674737    -0.58500
H1650       H  0.85691274  0.93892944  0.65312447     0.16100
O1651       O  0.89305890  0.93937620  0.58679028    -0.59900
H1652       H  0.88881654  0.98192938  0.59126282     0.14600
H1653       H  0.83895727  0.05688750  0.59161862     0.46400
H1654       H  0.83606813  0.98316389  0.65138774     0.41800
H1655       H  0.90882086  0.93809277  0.59102238     0.45300
H1656       H  0.88099976  0.01142221  0.67120564     0.36700
C1657       C  0.02216466  0.13862130  0.61437997    -0.27500
C1658       C  0.01045402  0.12959364  0.63219374     0.02100
C1659       C  0.02224668  0.12140234  0.65050281     0.30200
C1660       C  0.04538279  0.12205959  0.65059376    -0.19300
C1661       C  0.05708582  0.13060176  0.63251967    -0.28700
C1662       C  0.04522089  0.13919510  0.61442396     0.44200
C1663       C  0.98606735  0.12776651  0.63071416     0.05400
O1664       O  0.01138325  0.11136705  0.66764706    -0.57200
H1665       H  0.05418626  0.11524256  0.66458616     0.18300
O1666       O  0.05594352  0.14812177  0.59660750    -0.63900
H1667       H  0.01335405  0.14514668  0.60024773     0.16800
C1668       C  0.97213852  0.13576577  0.64752195     0.29000
C1669       C  0.94923441  0.13343617  0.64562272    -0.24800
C1670       C  0.93975053  0.12385919  0.62673655    -0.24100
C1671       C  0.95368037  0.11643495  0.60965406     0.40500
C1672       C  0.97659026  0.11820708  0.61184921    -0.26600
O1673       O  0.98065917  0.14633498  0.66563032    -0.58500
H1674       H  0.93883414  0.13965472  0.65876826     0.16100
O1675       O  0.94516066  0.10679172  0.59103076    -0.59900
H1676       H  0.98703896  0.11198324  0.59874170     0.14600
H1677       H  0.05816439  0.16387966  0.60040002     0.46400
H1678       H  0.98263857  0.16188466  0.66098560     0.41800
H1679       H  0.94462788  0.11873773  0.57987287     0.45300
H1680       H  0.01389790  0.12096723  0.68067593     0.36700
C1681       C  0.02513548  0.88843843  0.61523247    -0.27500
C1682       C  0.01420954  0.87689040  0.63203275     0.02100
C1683       C  0.02669757  0.86724793  0.64913079     0.30200
C1684       C  0.04980726  0.86900125  0.64901341    -0.19300
C1685       C  0.06075011  0.88018688  0.63191991    -0.28700
C1686       C  0.04813582  0.89022889  0.61512140     0.44200
C1687       C  0.98982617  0.87475417  0.63106650     0.05400
O1688       O  0.01655417  0.85495464  0.66520781    -0.57200
H1689       H  0.05920445  0.86098562  0.66194495     0.18300
O1690       O  0.05809711  0.90182290  0.59843782    -0.63900
H1691       H  0.01574159  0.89613628  0.60210188     0.16800
C1692       C  0.97634724  0.88220195  0.64845398     0.29000
C1693       C  0.95335505  0.88065178  0.64675070    -0.24800
C1694       C  0.94333280  0.87217123  0.62761231    -0.24100
C1695       C  0.95686500  0.86470586  0.61020220     0.40500
C1696       C  0.97987206  0.86608039  0.61201520    -0.26600
O1697       O  0.98543267  0.89160666  0.66692715    -0.58500
H1698       H  0.94331861  0.88665527  0.66027108     0.16100
O1699       O  0.94785028  0.85598560  0.59135903    -0.59900
H1700       H  0.99002558  0.86031744  0.59847115     0.14600
H1701       H  0.05981230  0.91702117  0.60422542     0.46400
H1702       H  0.98737972  0.90740443  0.66318224     0.41800
H1703       H  0.94596617  0.84004389  0.59449502     0.45300
H1704       H  0.01832859  0.86352236  0.67905300     0.36700
C1705       C  0.13415469  0.98254379  0.61434244    -0.27500
C1706       C  0.12764175  0.99338629  0.63370088     0.02100
C1707       C  0.12154575  0.98086637  0.65227672     0.30200
C1708       C  0.12175378  0.95777785  0.65117451    -0.19300
C1709       C  0.12800211  0.94686368  0.63168133    -0.28700
C1710       C  0.13453378  0.95951974  0.61326096     0.44200
C1711       C  0.12661810  0.01776273  0.63392300     0.05400
O1712       O  0.11419407  0.99106359  0.67111095    -0.57200
H1713       H  0.11657391  0.94842091  0.66549327     0.18300
O1714       O  0.14134650  0.94962049  0.59408638    -0.63900
H1715       H  0.13903583  0.99201911  0.59998965     0.16800
C1716       C  0.13899292  0.03022868  0.64913746     0.29000
C1717       C  0.13769093  0.05326590  0.64890057    -0.24800
C1718       C  0.12463849  0.06418590  0.63318551    -0.24100
C1719       C  0.11240767  0.05172334  0.61784826     0.40500
C1720       C  0.11346570  0.02868790  0.61829763    -0.26600
O1721       O  0.15278111  0.02008648  0.66394775    -0.58500
H1722       H  0.14737477  0.06264717  0.66065352     0.16100
O1723       O  0.09913054  0.06186693  0.60257023    -0.59900
H1724       H  0.10386637  0.01928220  0.60649495     0.14600
H1725       H  0.15743063  0.94724593  0.59597710     0.46400
H1726       H  0.16698364  0.01825377  0.65603473     0.41800
H1727       H  0.08474805  0.06395192  0.61008571     0.45300
H1728       H  0.12603293  0.98880191  0.68220655     0.36700
C1729       C  0.62817525  0.84887343  0.27086937    -0.27500
C1730       C  0.62473476  0.86905392  0.26010610     0.02100
C1731       C  0.62167992  0.88828603  0.27262356     0.30200
C1732       C  0.62193151  0.88723368  0.29563527    -0.19300
C1733       C  0.62516259  0.86706500  0.30666282    -0.28700
C1734       C  0.62822728  0.84771532  0.29399891     0.44200
C1735       C  0.62409924  0.87011264  0.23578574     0.05400
O1736       O  0.61838204  0.90823136  0.26245976    -0.57200
H1737       H  0.61947403  0.90234466  0.30485451     0.18300
O1738       O  0.63164282  0.82769172  0.30395643    -0.63900
H1739       H  0.63057833  0.83396433  0.26130026     0.16800
C1740       C  0.64351748  0.86822168  0.22328369     0.29000
C1741       C  0.64272430  0.87071593  0.20033096    -0.24800
C1742       C  0.62258918  0.87475106  0.18944764    -0.24100
C1743       C  0.60306599  0.87627500  0.20212036     0.40500
C1744       C  0.60400167  0.87417431  0.22510112    -0.26600
O1745       O  0.66344896  0.86474760  0.23344753    -0.58500
H1746       H  0.65793828  0.86937060  0.19104116     0.16100
O1747       O  0.58305495  0.88038376  0.19235620    -0.59900
H1748       H  0.58897296  0.87577775  0.23466294     0.14600
H1749       H  0.61688067  0.82065924  0.30458856     0.46400
H1750       H  0.66548015  0.84852226  0.23344621     0.41800
H1751       H  0.57615146  0.86568474  0.19036397     0.45300
H1752       H  0.63337876  0.91428258  0.25996186     0.36700
C1753       C  0.64973075  0.86952113  0.77191348    -0.27500
C1754       C  0.62949857  0.86703877  0.76099022     0.02100
C1755       C  0.60999062  0.86500346  0.77330710     0.30200
C1756       C  0.61079180  0.86602914  0.79632010    -0.19300
C1757       C  0.63096633  0.86905306  0.80744438    -0.28700
C1758       C  0.65063641  0.87028728  0.79497857     0.44200
C1759       C  0.62879936  0.86728765  0.73669081     0.05400
O1760       O  0.59000852  0.86244754  0.76296215    -0.57200
H1761       H  0.59546589  0.86478237  0.80543645     0.18300
O1762       O  0.67076076  0.87281614  0.80503628    -0.63900
H1763       H  0.66486001  0.87095546  0.76248635     0.16800
C1764       C  0.63349658  0.88673551  0.72500012     0.29000
C1765       C  0.63286236  0.88675108  0.70194277    -0.24800
C1766       C  0.62759763  0.86745406  0.69019512    -0.24100
C1767       C  0.62260367  0.84801546  0.70206374     0.40500
C1768       C  0.62310937  0.84811124  0.72514840    -0.26600
O1769       O  0.63865316  0.90582689  0.73600476    -0.58500
H1770       H  0.63666057  0.90189530  0.69325306     0.16100
O1771       O  0.61660463  0.82900553  0.69135192    -0.59900
H1772       H  0.61919949  0.83313169  0.73408486     0.14600
H1773       H  0.67656740  0.85763000  0.80687178     0.46400
H1774       H  0.62424395  0.91285762  0.73935948     0.41800
H1775       H  0.63030145  0.82007071  0.69047802     0.45300
H1776       H  0.58468137  0.87764695  0.76009681     0.36700
C1777       C  0.72865537  0.84982737  0.62747898    -0.27500
C1778       C  0.73983351  0.86905235  0.62125112     0.02100
C1779       C  0.72777383  0.88802201  0.61562736     0.30200
C1780       C  0.70469046  0.88762559  0.61629418    -0.19300
C1781       C  0.69333369  0.86842473  0.62262141    -0.28700
C1782       C  0.70557390  0.84942735  0.62834986     0.44200
C1783       C  0.76414734  0.86939017  0.62133667     0.05400
O1784       O  0.73845352  0.90678674  0.60884298    -0.57200
H1785       H  0.69567368  0.90234907  0.61165944     0.18300
O1786       O  0.69522326  0.83046767  0.63507713    -0.63900
H1787       H  0.73789055  0.83520318  0.63202049     0.16800
C1788       C  0.77563907  0.88045669  0.63814957     0.29000
C1789       C  0.79870949  0.88048076  0.63821999    -0.24800
C1790       C  0.81060909  0.86988273  0.62139809    -0.24100
C1791       C  0.79903462  0.85873603  0.60456107     0.40500
C1792       C  0.77591300  0.85848172  0.60467666    -0.26600
O1793       O  0.76440355  0.89068829  0.65492921    -0.58500
H1794       H  0.80731742  0.88900379  0.65137860     0.16100
O1795       O  0.81011235  0.84770051  0.58820019    -0.59900
H1796       H  0.76712620  0.84978707  0.59175199     0.14600
H1797       H  0.69364807  0.83197560  0.65129586     0.46400
H1798       H  0.76516728  0.90668058  0.65152967     0.41800
H1799       H  0.81313704  0.83284305  0.59433608     0.45300
H1800       H  0.73775514  0.91701980  0.62158743     0.36700
C1801       C  0.61809076  0.88871909  0.52243269    -0.27500
C1802       C  0.62317221  0.86942353  0.51067636     0.02100
C1803       C  0.62954355  0.85039230  0.52238391     0.30200
C1804       C  0.63037572  0.85074626  0.54546919    -0.19300
C1805       C  0.62506884  0.86994807  0.55730292    -0.28700
C1806       C  0.61892688  0.88909354  0.54552518     0.44200
C1807       C  0.62248342  0.86953278  0.48619612     0.05400
O1808       O  0.63613981  0.83175787  0.51133118    -0.57200
H1809       H  0.63550668  0.83596211  0.55410617     0.18300
O1810       O  0.61361479  0.90824979  0.55633856    -0.63900
H1811       H  0.61326577  0.90352726  0.51365474     0.16800
C1812       C  0.61019485  0.85370854  0.47436233     0.29000
C1813       C  0.61100740  0.85328694  0.45128201    -0.24800
C1814       C  0.62332077  0.86903002  0.43960150    -0.24100
C1815       C  0.63488132  0.88542169  0.45142064     0.40500
C1816       C  0.63444754  0.88553413  0.47450770    -0.26600
O1817       O  0.59711068  0.83875432  0.48517851    -0.58500
H1818       H  0.60162405  0.84087485  0.44247108     0.16100
O1819       O  0.64703461  0.90115506  0.44061202    -0.59900
H1820       H  0.64384983  0.89792166  0.48333589     0.14600
H1821       H  0.59753595  0.90721047  0.55926537     0.46400
H1822       H  0.58310492  0.84666622  0.48815992     0.41800
H1823       H  0.66176720  0.89440260  0.43834433     0.45300
H1824       H  0.62482263  0.82040526  0.51469221     0.36700
C1825       C  0.22755964  0.87745012  0.60391191    -0.27500
C1826       C  0.24012192  0.88167435  0.62286094     0.02100
C1827       C  0.22931239  0.88519218  0.64311993     0.30200
C1828       C  0.20625654  0.88469540  0.64417200    -0.19300
C1829       C  0.19356893  0.88062470  0.62518643    -0.28700
C1830       C  0.20450034  0.87691502  0.60491102     0.44200
C1831       C  0.26450330  0.88207351  0.62150329     0.05400
O1832       O  0.24115871  0.88895384  0.66204683    -0.57200
H1833       H  0.19831111  0.88756367  0.65992317     0.18300
O1834       O  0.19290332  0.87222596  0.58603889    -0.63900
H1835       H  0.23566099  0.87470722  0.58821442     0.16800
C1836       C  0.27630837  0.86368419  0.61367747     0.29000
C1837       C  0.29937867  0.86374096  0.61422373    -0.24800
C1838       C  0.31105865  0.88213213  0.62217014    -0.24100
C1839       C  0.29920110  0.90088541  0.62917993     0.40500
C1840       C  0.27610798  0.90072812  0.62881068    -0.26600
O1841       O  0.26543118  0.84512584  0.60661934    -0.58500
H1842       H  0.30814079  0.84920221  0.60861053     0.16100
O1843       O  0.30992598  0.91922653  0.63696972    -0.59900
H1844       H  0.26719268  0.91511185  0.63458054     0.14600
H1845       H  0.19156706  0.88649191  0.57815781     0.46400
H1846       H  0.26639974  0.84549348  0.59030413     0.41800
H1847       H  0.31138858  0.91683002  0.65308030     0.45300
H1848       H  0.24513603  0.87411381  0.66764463     0.36700
C1849       C  0.34754164  0.87747825  0.77501150    -0.27500
C1850       C  0.36784078  0.87670443  0.76394316     0.02100
C1851       C  0.38749147  0.87558395  0.77618939     0.30200
C1852       C  0.38672555  0.87520084  0.79922062    -0.19300
C1853       C  0.36644909  0.87592151  0.81052988    -0.28700
C1854       C  0.34671741  0.87728155  0.79813738     0.44200
C1855       C  0.36857734  0.87724234  0.73959346     0.05400
O1856       O  0.40756319  0.87474445  0.76575041    -0.57200
H1857       H  0.40214562  0.87419880  0.80822295     0.18300
O1858       O  0.32654756  0.87825860  0.80835001    -0.63900
H1859       H  0.33231264  0.87846762  0.76567729     0.16800
C1860       C  0.36115852  0.85922899  0.72701222     0.29000
C1861       C  0.36321436  0.85959551  0.70399339    -0.24800
C1862       C  0.37228870  0.87800595  0.69317662    -0.24100
C1863       C  0.37949766  0.89614553  0.70591843     0.40500
C1864       C  0.37765194  0.89561022  0.72891696    -0.26600
O1865       O  0.35266857  0.84087075  0.73714346    -0.58500
H1866       H  0.35758410  0.84547172  0.69459298     0.16100
O1867       O  0.38865344  0.91438297  0.69615181    -0.59900
H1868       H  0.38347198  0.90953719  0.73850575     0.14600
H1869       H  0.32337244  0.89421680  0.81003714     0.46400
H1870       H  0.33646692  0.84318029  0.73731844     0.41800
H1871       H  0.40466199  0.91112126  0.69512917     0.45300
H1872       H  0.41013758  0.85889104  0.76267456     0.36700
C1873       C  0.47744986  0.85236964  0.63229907    -0.27500
C1874       C  0.49006967  0.87171357  0.63072453     0.02100
C1875       C  0.47919064  0.89224654  0.63000130     0.30200
C1876       C  0.45614273  0.89316367  0.63000581    -0.19300
C1877       C  0.44343004  0.87380340  0.63101717    -0.28700
C1878       C  0.45436064  0.85326578  0.63257609     0.44200
C1879       C  0.51447504  0.87035571  0.62907657     0.05400
O1880       O  0.49093838  0.91156974  0.62915233    -0.57200
H1881       H  0.44822800  0.90915761  0.62901182     0.18300
O1882       O  0.44273083  0.83394600  0.63446742    -0.63900
H1883       H  0.48548381  0.83641528  0.63277844     0.16800
C1884       C  0.52700150  0.85786229  0.64420722     0.29000
C1885       C  0.55003269  0.85714069  0.64230135    -0.24800
C1886       C  0.56081364  0.86901211  0.62565811    -0.24100
C1887       C  0.54838647  0.88126109  0.61040535     0.40500
C1888       C  0.52538588  0.88170993  0.61204995    -0.26600
O1889       O  0.51699257  0.84733686  0.66157075    -0.58500
H1890       H  0.55954477  0.84781945  0.65424447     0.16100
O1891       O  0.55856933  0.89272319  0.59375867    -0.59900
H1892       H  0.51602057  0.89096337  0.59995270     0.14600
H1893       H  0.44189153  0.82791305  0.61927889     0.46400
H1894       H  0.51804325  0.83136544  0.65817260     0.41800
H1895       H  0.56066176  0.88185268  0.58170203     0.45300
H1896       H  0.49443503  0.91515576  0.64472763     0.36700
C1897       C  0.40050039  0.86583593  0.22859771    -0.27500
C1898       C  0.38176927  0.87365440  0.23965927     0.02100
C1899       C  0.36333999  0.88068236  0.22751165     0.30200
C1900       C  0.36365845  0.87964287  0.20449667    -0.19300
C1901       C  0.38232794  0.87173527  0.19320994    -0.28700
C1902       C  0.40098666  0.86503615  0.20549418     0.44200
C1903       C  0.38131887  0.87430449  0.26393683     0.05400
O1904       O  0.34491725  0.88856648  0.23804254    -0.57200
H1905       H  0.34921009  0.88508592  0.19546907     0.18300
O1906       O  0.41946529  0.85699700  0.19519183    -0.63900
H1907       H  0.41475798  0.86036734  0.23791542     0.16800
C1908       C  0.37732552  0.85507695  0.27620760     0.29000
C1909       C  0.37548945  0.85626409  0.29919134    -0.24800
C1910       C  0.37775534  0.87653768  0.31027641    -0.24100
C1911       C  0.38220755  0.89574702  0.29780596     0.40500
C1912       C  0.38388181  0.89449128  0.27482013    -0.26600
O1913       O  0.37444741  0.83519529  0.26579386    -0.58500
H1914       H  0.37214306  0.84127288  0.30831864     0.16100
O1915       O  0.38544294  0.91575599  0.30786493    -0.59900
H1916       H  0.38708810  0.90935362  0.26541808     0.14600
H1917       H  0.42954017  0.86981439  0.19384713     0.46400
H1918       H  0.38942389  0.82868750  0.26479719     0.41800
H1919       H  0.37093232  0.92333055  0.30712350     0.45300
H1920       H  0.33558282  0.87541828  0.24077198     0.36700
C1921       C  0.47666344  0.89059854  0.36461919    -0.27500
C1922       C  0.48743054  0.87220375  0.37365807     0.02100
C1923       C  0.47491079  0.85557357  0.38392973     0.30200
C1924       C  0.45191170  0.85743715  0.38487293    -0.19300
C1925       C  0.44111191  0.87582860  0.37581243    -0.28700
C1926       C  0.45369327  0.89247921  0.36557423     0.44200
C1927       C  0.51179487  0.87113498  0.37308012     0.05400
O1928       O  0.48510976  0.83809992  0.39411138    -0.57200
H1929       H  0.44252739  0.84458362  0.39301289     0.18300
O1930       O  0.44374120  0.91051290  0.35619492    -0.63900
H1931       H  0.48613606  0.90350736  0.35666839     0.16800
C1932       C  0.52295589  0.85301182  0.36374340     0.29000
C1933       C  0.54603769  0.85237148  0.36390077    -0.24800
C1934       C  0.55829229  0.86992039  0.37279331    -0.24100
C1935       C  0.54705547  0.88819815  0.38180619     0.40500
C1936       C  0.52401963  0.88868995  0.38186153    -0.26600
O1937       O  0.51149301  0.83602561  0.35413602    -0.58500
H1938       H  0.55436939  0.83828979  0.35669499     0.16100
O1939       O  0.55837438  0.90554969  0.39092237    -0.59900
H1940       H  0.51563219  0.90273730  0.38907816     0.14600
H1941       H  0.44015461  0.90596507  0.34088913     0.46400
H1942       H  0.50838146  0.84102364  0.33887378     0.41800
H1943       H  0.56073891  0.90139236  0.40657051     0.45300
H1944       H  0.48120387  0.82493547  0.38518613     0.36700
C1945       C  0.36865517  0.89855536  0.47813612    -0.27500
C1946       C  0.37863824  0.88098120  0.48945930     0.02100
C1947       C  0.38744795  0.86322247  0.47732889     0.30200
C1948       C  0.38578632  0.86296201  0.45433895    -0.19300
C1949       C  0.37584966  0.88051393  0.44297455    -0.28700
C1950       C  0.36740416  0.89852250  0.45504613     0.44200
C1951       C  0.37903038  0.88072534  0.51391217     0.05400
O1952       O  0.39780381  0.84604096  0.48781002    -0.57200
H1953       H  0.39266467  0.84913306  0.44533291     0.18300
O1954       O  0.35697375  0.91563906  0.44453096    -0.63900
H1955       H  0.36144698  0.91214881  0.48723118     0.16800
C1956       C  0.38810799  0.89828155  0.52612932     0.29000
C1957       C  0.38838668  0.89734304  0.54924338    -0.24800
C1958       C  0.37971402  0.87900730  0.56049075    -0.24100
C1959       C  0.37059422  0.86149655  0.54817592     0.40500
C1960       C  0.37018111  0.86254101  0.52514502    -0.26600
O1961       O  0.39750738  0.91597695  0.51560683    -0.58500
H1962       H  0.39556777  0.91093346  0.55837501     0.16100
O1963       O  0.36113779  0.84370531  0.55846696    -0.59900
H1964       H  0.36273694  0.84910904  0.51598430     0.14600
H1965       H  0.36824604  0.92742354  0.44332238     0.46400
H1966       H  0.38668050  0.92815827  0.51711712     0.41800
H1967       H  0.37263465  0.83207228  0.55833565     0.45300
H1968       H  0.41317701  0.85110476  0.49020545     0.36700
C1969       C  0.86225207  0.37951768  0.72084674    -0.27500
C1970       C  0.88161254  0.37309626  0.73169219     0.02100
C1971       C  0.90009416  0.36648497  0.71935625     0.30200
C1972       C  0.89898779  0.36618316  0.69632668    -0.19300
C1973       C  0.87949797  0.37234625  0.68535211    -0.28700
C1974       C  0.86107980  0.37923872  0.69785068     0.44200
C1975       C  0.88221596  0.37317392  0.75594265     0.05400
O1976       O  0.91926173  0.36026558  0.72968362    -0.57200
H1977       H  0.91334208  0.36090873  0.68706361     0.18300
O1978       O  0.84185648  0.38577365  0.68782592    -0.63900
H1979       H  0.84794204  0.38462550  0.73028147     0.16800
C1980       C  0.88031259  0.39301506  0.76772882     0.29000
C1981       C  0.88040972  0.39272266  0.79076414    -0.24800
C1982       C  0.88202430  0.37270809  0.80238141    -0.24100
C1983       C  0.88394648  0.35279424  0.79040708     0.40500
C1984       C  0.88407719  0.35318501  0.76734934    -0.26600
O1985       O  0.87888405  0.41279802  0.75683038    -0.58500
H1986       H  0.87898076  0.40824013  0.79951498     0.16100
O1987       O  0.88537131  0.33283646  0.80096380    -0.59900
H1988       H  0.88534804  0.33780811  0.75831192     0.14600
H1989       H  0.84342543  0.40192429  0.68567254     0.46400
H1990       H  0.86294381  0.41646975  0.75663234     0.41800
H1991       H  0.90140707  0.32996084  0.80255998     0.45300
H1992       H  0.92761554  0.37414227  0.73194127     0.36700
C1993       C  0.85433111  0.27015349  0.62413851    -0.27500
C1994       C  0.87386117  0.25809172  0.62125358     0.02100
C1995       C  0.89383952  0.26944624  0.61783867     0.30200
C1996       C  0.89407178  0.29250032  0.61727553    -0.19300
C1997       C  0.87453214  0.30468277  0.62011977    -0.28700
C1998       C  0.85450518  0.29322592  0.62355428     0.44200
C1999       C  0.87320163  0.23367878  0.62141389     0.05400
O2000       O  0.91327489  0.25815063  0.61514076    -0.57200
H2001       H  0.90965608  0.30084039  0.61459788     0.18300
O2002       O  0.83505050  0.30433388  0.62681230    -0.63900
H2003       H  0.83880228  0.26163701  0.62658625     0.16800
C2004       C  0.86449340  0.22198826  0.63949068     0.29000
C2005       C  0.86446394  0.19888554  0.63935731    -0.24800
C2006       C  0.87270796  0.18709675  0.62116982    -0.24100
C2007       C  0.88119719  0.19890581  0.60297300     0.40500
C2008       C  0.88144806  0.22196041  0.60326141    -0.26600
O2009       O  0.85685222  0.23300236  0.65773310    -0.58500
H2010       H  0.85791905  0.19019716  0.65353733     0.16100
O2011       O  0.89007844  0.18813751  0.58515694    -0.59900
H2012       H  0.88809040  0.23075267  0.58918529     0.14600
H2013       H  0.82788803  0.30486963  0.61210550     0.46400
H2014       H  0.84053298  0.23213442  0.65679187     0.41800
H2015       H  0.87814033  0.18778153  0.57396632     0.45300
H2016       H  0.91887148  0.25554989  0.63029701     0.36700
C2017       C  0.86638554  0.35203643  0.22041521    -0.27500
C2018       C  0.87124279  0.37140264  0.23204301     0.02100
C2019       C  0.87620125  0.39080168  0.22045028     0.30200
C2020       C  0.87636568  0.39070316  0.19739952    -0.19300
C2021       C  0.87163518  0.37133159  0.18551760    -0.28700
C2022       C  0.86666165  0.35183036  0.19728800     0.44200
C2023       C  0.87141521  0.37129658  0.25633400     0.05400
O2024       O  0.88123029  0.40986550  0.23155731    -0.57200
H2025       H  0.88037507  0.40585702  0.18882291     0.18300
O2026       O  0.86150644  0.33265527  0.18643617    -0.63900
H2027       H  0.86246992  0.33703600  0.22931130     0.16800
C2028       C  0.85208073  0.37560960  0.26834009     0.29000
C2029       C  0.85273568  0.37606619  0.29141761    -0.24800
C2030       C  0.87265559  0.37249647  0.30284157    -0.24100
C2031       C  0.89203650  0.36812998  0.29059996     0.40500
C2032       C  0.89127881  0.36763085  0.26753091    -0.26600
O2033       O  0.83248626  0.37937654  0.25763662    -0.58500
H2034       H  0.83762984  0.37945999  0.30035597     0.16100
O2035       O  0.91185399  0.36446539  0.30091745    -0.59900
H2036       H  0.90627107  0.36443895  0.25831640     0.14600
H2037       H  0.87545727  0.32411301  0.18597378     0.46400
H2038       H  0.83201172  0.39554146  0.25513437     0.41800
H2039       H  0.91278121  0.34824333  0.30277077     0.45300
H2040       H  0.86688865  0.41744689  0.23374979     0.36700
C2041       C  0.89005422  0.38541996  0.47061624    -0.27500
C2042       C  0.87380731  0.37343371  0.48195806     0.02100
C2043       C  0.85715530  0.36258637  0.46988646     0.30200
C2044       C  0.85693769  0.36382447  0.44687540    -0.19300
C2045       C  0.87346318  0.37539464  0.43551302    -0.28700
C2046       C  0.89004739  0.38636573  0.44757650     0.44200
C2047       C  0.87424191  0.37251813  0.50635271     0.05400
O2048       O  0.84122438  0.35042159  0.48039512    -0.57200
H2049       H  0.84411546  0.35520225  0.43786633     0.18300
O2050       O  0.90619284  0.39823566  0.43706255    -0.63900
H2051       H  0.90269606  0.39425251  0.47966325     0.16800
C2052       C  0.89345993  0.36616393  0.51776808     0.29000
C2053       C  0.89349883  0.36561003  0.54083041    -0.24800
C2054       C  0.87454015  0.37134396  0.55288809    -0.24100
C2055       C  0.85526591  0.37759695  0.54138955     0.40500
C2056       C  0.85527147  0.37818515  0.51834479    -0.26600
O2057       O  0.91197614  0.35960234  0.50649387    -0.58500
H2058       H  0.90842817  0.36052521  0.54926753     0.16100
O2059       O  0.83633875  0.38328442  0.55242367    -0.59900
H2060       H  0.84043438  0.38335756  0.50979669     0.14600
H2061       H  0.89995208  0.41325440  0.43522647     0.46400
H2062       H  0.92276684  0.37176547  0.50837401     0.41800
H2063       H  0.83739207  0.39944849  0.55469805     0.45300
H2064       H  0.84790714  0.33566679  0.48266328     0.36700
C2065       C  0.85438011  0.72244581  0.63292854    -0.27500
C2066       C  0.87334724  0.73364303  0.62585978     0.02100
C2067       C  0.89195232  0.72153216  0.61915641     0.30200
C2068       C  0.89139696  0.69848603  0.61945870    -0.19300
C2069       C  0.87232649  0.68712044  0.62618048    -0.28700
C2070       C  0.85372916  0.69935284  0.63309621     0.44200
C2071       C  0.87369271  0.75799280  0.62565508     0.05400
O2072       O  0.91102472  0.73213489  0.61309741    -0.57200
H2073       H  0.90597346  0.68950820  0.61429920     0.18300
O2074       O  0.83490258  0.68899280  0.64018954    -0.63900
H2075       H  0.84000077  0.73166603  0.63822906     0.16800
C2076       C  0.87646814  0.76963105  0.60579176     0.29000
C2077       C  0.87765103  0.79264160  0.60599888    -0.24800
C2078       C  0.87582946  0.80449230  0.62586999    -0.24100
C2079       C  0.87244796  0.79273995  0.64572565     0.40500
C2080       C  0.87146537  0.76967141  0.64547835    -0.26600
O2081       O  0.87795959  0.75864533  0.58606026    -0.58500
H2082       H  0.87993132  0.80120562  0.59048058     0.16100
O2083       O  0.87024466  0.80352505  0.66549607    -0.59900
H2084       H  0.86917873  0.76083765  0.66085162     0.14600
H2085       H  0.83696220  0.68694323  0.65629222     0.46400
H2086       H  0.86248321  0.75623020  0.58131242     0.41800
H2087       H  0.85414098  0.80581817  0.66734648     0.45300
H2088       H  0.91196014  0.73045401  0.59685149     0.36700
C2089       C  0.89027054  0.63341212  0.72771550    -0.27500
C2090       C  0.87276059  0.62400488  0.73946320     0.02100
C2091       C  0.85511901  0.61427672  0.72796928     0.30200
C2092       C  0.85522499  0.61391319  0.70486695    -0.19300
C2093       C  0.87303593  0.62284419  0.69298622    -0.28700
C2094       C  0.89054397  0.63288030  0.70465651     0.44200
C2095       C  0.87326723  0.62423889  0.76376547     0.05400
O2096       O  0.83753319  0.60550944  0.73919702    -0.57200
H2097       H  0.84151234  0.60631981  0.69625687     0.18300
O2098       O  0.90795331  0.64235609  0.69373704    -0.63900
H2099       H  0.90386258  0.64104205  0.73649448     0.16800
C2100       C  0.87797129  0.60492293  0.77567086     0.29000
C2101       C  0.87883113  0.60551610  0.79872462    -0.24800
C2102       C  0.87520779  0.62532947  0.81024224    -0.24100
C2103       C  0.87039840  0.64468976  0.79814318     0.40500
C2104       C  0.86964306  0.64403584  0.77507961    -0.26600
O2105       O  0.88190561  0.58542412  0.76488357    -0.58500
H2106       H  0.88256235  0.59044670  0.80757672     0.16100
O2107       O  0.86632335  0.66433569  0.80860612    -0.59900
H2108       H  0.86605716  0.65899832  0.76597381     0.14600
H2109       H  0.90324295  0.65772503  0.69070797     0.46400
H2110       H  0.89787119  0.58564184  0.76132194     0.41800
H2111       H  0.85017338  0.66450197  0.81127108     0.45300
H2112       H  0.84079833  0.58953593  0.74048012     0.36700
C2113       C  0.86830970  0.47100418  0.63910096    -0.27500
C2114       C  0.87746956  0.48345057  0.62189037     0.02100
C2115       C  0.88777191  0.47253325  0.60411078     0.30200
C2116       C  0.88866194  0.44944585  0.60368745    -0.19300
C2117       C  0.87896059  0.43710167  0.62064819    -0.28700
C2118       C  0.86897602  0.44798466  0.63854233     0.44200
C2119       C  0.87651639  0.50780338  0.62291728     0.05400
O2120       O  0.89663478  0.48427385  0.58691999    -0.57200
H2121       H  0.89632307  0.44116942  0.58981200     0.18300
O2122       O  0.85996681  0.43622079  0.65564788    -0.63900
H2123       H  0.86075207  0.47918177  0.65308609     0.16800
C2124       C  0.85620680  0.51895679  0.62456421     0.29000
C2125       C  0.85576416  0.54202047  0.62583505    -0.24800
C2126       C  0.87545300  0.55430247  0.62582429    -0.24100
C2127       C  0.89580435  0.54296141  0.62435366     0.40500
C2128       C  0.89616321  0.51995923  0.62277987    -0.26600
O2129       O  0.83669556  0.50747478  0.62409844    -0.58500
H2130       H  0.83993148  0.55027476  0.62679827     0.16100
O2131       O  0.91548353  0.55413505  0.62394603    -0.59900
H2132       H  0.91190562  0.51153511  0.62168779     0.14600
H2133       H  0.87241302  0.43333209  0.66589814     0.46400
H2134       H  0.83159505  0.50699776  0.63963842     0.41800
H2135       H  0.92058382  0.55442067  0.63949634     0.45300
H2136       H  0.88419377  0.48679318  0.57659462     0.36700
C2137       C  0.85205864  0.63226932  0.27510309    -0.27500
C2138       C  0.87191522  0.63070717  0.26346452     0.02100
C2139       C  0.89188529  0.62843020  0.27499353     0.30200
C2140       C  0.89183884  0.62767005  0.29806378    -0.19300
C2141       C  0.87192239  0.62889054  0.30994215    -0.28700
C2142       C  0.85188766  0.63127526  0.29816000     0.44200
C2143       C  0.87158554  0.63082780  0.23920399     0.05400
O2144       O  0.91152958  0.62713715  0.26382226    -0.57200
H2145       H  0.90743527  0.62589363  0.30663143     0.18300
O2146       O  0.83204825  0.63291438  0.30893091    -0.63900
H2147       H  0.83661109  0.63402045  0.26624485     0.16800
C2148       C  0.87110292  0.61091855  0.22740526     0.29000
C2149       C  0.87132869  0.61120194  0.20435652    -0.24800
C2150       C  0.87184204  0.63127274  0.19271405    -0.24100
C2151       C  0.87183620  0.65127830  0.20473127     0.40500
C2152       C  0.87180368  0.65089902  0.22782258    -0.26600
O2153       O  0.87075240  0.59109441  0.23830211    -0.58500
H2154       H  0.87118480  0.59561704  0.19561096     0.16100
O2155       O  0.87227769  0.67128515  0.19418383    -0.59900
H2156       H  0.87206302  0.66630523  0.23689139     0.14600
H2157       H  0.82601713  0.61770997  0.30914958     0.46400
H2158       H  0.85492050  0.58796023  0.24095603     0.41800
H2159       H  0.85658212  0.67569336  0.19269735     0.45300
H2160       H  0.91382433  0.61119648  0.26101725     0.36700
C2161       C  0.89094847  0.52289450  0.37817302    -0.27500
C2162       C  0.87192434  0.51185109  0.37088444     0.02100
C2163       C  0.85328075  0.52429413  0.36469038     0.30200
C2164       C  0.85384860  0.54732612  0.36587740    -0.19300
C2165       C  0.87298054  0.55840722  0.37287699    -0.28700
C2166       C  0.89163694  0.54593348  0.37910430     0.44200
C2167       C  0.87169995  0.48739314  0.36992092     0.05400
O2168       O  0.83448556  0.51412511  0.35721440    -0.57200
H2169       H  0.83932638  0.55654710  0.36098632     0.18300
O2170       O  0.91057015  0.55600763  0.38636258    -0.63900
H2171       H  0.90528925  0.51360564  0.38343776     0.16800
C2172       C  0.88860528  0.47570148  0.35905589     0.29000
C2173       C  0.88828378  0.45262673  0.35866279    -0.24800
C2174       C  0.87119255  0.44081760  0.36889025    -0.24100
C2175       C  0.85422111  0.45250976  0.37969614     0.40500
C2176       C  0.85460541  0.47558885  0.38018809    -0.26600
O2177       O  0.90501377  0.48672277  0.34801201    -0.58500
H2178       H  0.90137456  0.44394864  0.35011448     0.16100
O2179       O  0.83742189  0.44158859  0.39021657    -0.59900
H2180       H  0.84166539  0.48429502  0.38893129     0.14600
H2181       H  0.90865666  0.55760722  0.40253428     0.46400
H2182       H  0.91852825  0.48461240  0.35701912     0.41800
H2183       H  0.84291201  0.43889829  0.40540291     0.45300
H2184       H  0.83664411  0.51244004  0.34108606     0.36700
C2185       C  0.85396674  0.61750504  0.47785755    -0.27500
C2186       C  0.87404901  0.61811234  0.48937595     0.02100
C2187       C  0.89393408  0.61891745  0.47731165     0.30200
C2188       C  0.89343814  0.61975312  0.45421875    -0.19300
C2189       C  0.87327325  0.62004399  0.44270730    -0.28700
C2190       C  0.85341100  0.61874672  0.45484323     0.44200
C2191       C  0.87389820  0.61851326  0.51390221     0.05400
O2192       O  0.91395024  0.61933260  0.48789416    -0.57200
H2193       H  0.90893410  0.62054795  0.44534020     0.18300
O2194       O  0.83328290  0.61858479  0.44447094    -0.63900
H2195       H  0.83852498  0.61623865  0.48676939     0.16800
C2196       C  0.86028514  0.63346131  0.52547731     0.29000
C2197       C  0.86013927  0.63350205  0.54856734    -0.24800
C2198       C  0.87376383  0.61912026  0.56045577    -0.24100
C2199       C  0.88745157  0.60425055  0.54900494     0.40500
C2200       C  0.88731698  0.60389048  0.52590727    -0.26600
O2201       O  0.84793489  0.64884977  0.51435372    -0.58500
H2202       H  0.84974784  0.64521039  0.55721409     0.16100
O2203       O  0.90077530  0.58979177  0.56023386    -0.59900
H2204       H  0.89759755  0.59202580  0.51736217     0.14600
H2205       H  0.82840390  0.63419395  0.44433476     0.46400
H2206       H  0.83235079  0.64422895  0.51631960     0.41800
H2207       H  0.89124351  0.57694461  0.56364857     0.45300
H2208       H  0.91668483  0.63508752  0.49130229     0.36700
C2209       C  0.37677064  0.15008449  0.73261363    -0.27500
C2210       C  0.37284209  0.13002498  0.74334732     0.02100
C2211       C  0.36977920  0.11075099  0.73089591     0.30200
C2212       C  0.37050387  0.11167401  0.70786231    -0.19300
C2213       C  0.37439973  0.13173820  0.69687898    -0.28700
C2214       C  0.37764907  0.15106853  0.70954215     0.44200
C2215       C  0.37286973  0.12906444  0.76761730     0.05400
O2216       O  0.36585551  0.09096402  0.74113685    -0.57200
H2217       H  0.36789433  0.09661638  0.69859505     0.18300
O2218       O  0.38173050  0.17099131  0.69963466    -0.63900
H2219       H  0.37936318  0.16496748  0.74217778     0.16800
C2220       C  0.39252818  0.12479119  0.77908508     0.29000
C2221       C  0.39229386  0.12300531  0.80206776    -0.24800
C2222       C  0.37256222  0.12564787  0.81403225    -0.24100
C2223       C  0.35286040  0.13027871  0.80238006     0.40500
C2224       C  0.35313842  0.13181694  0.77931282    -0.26600
O2225       O  0.41199366  0.12193066  0.76789218    -0.58500
H2226       H  0.40767367  0.11956086  0.81051688     0.16100
O2227       O  0.33322076  0.13315568  0.81325266    -0.59900
H2228       H  0.33791733  0.13512057  0.77051075     0.14600
H2229       H  0.39802296  0.17183223  0.69826433     0.46400
H2230       H  0.41822651  0.13695219  0.76624405     0.41800
H2231       H  0.33211856  0.14926114  0.81591892     0.45300
H2232       H  0.38065442  0.08460425  0.74397506     0.36700
C2233       C  0.22562332  0.13132218  0.65108048    -0.27500
C2234       C  0.23675391  0.13331414  0.63091249     0.02100
C2235       C  0.22451171  0.13426282  0.61121712     0.30200
C2236       C  0.20139990  0.13334114  0.61191964    -0.19300
C2237       C  0.19012008  0.13162155  0.63214201    -0.28700
C2238       C  0.20255431  0.13046507  0.65184420     0.44200
C2239       C  0.26118159  0.13352186  0.63071403     0.05400
O2240       O  0.23505382  0.13503775  0.59119260    -0.57200
H2241       H  0.19231900  0.13398428  0.59653054     0.18300
O2242       O  0.19242553  0.12851677  0.67198139    -0.63900
H2243       H  0.23490961  0.13041999  0.66634359     0.16800
C2244       C  0.27307127  0.15185876  0.62287827     0.29000
C2245       C  0.29621741  0.15171190  0.62342168    -0.24800
C2246       C  0.30779316  0.13326632  0.63139071    -0.24100
C2247       C  0.29576239  0.11502050  0.63943740     0.40500
C2248       C  0.27268837  0.11528904  0.63907232    -0.26600
O2249       O  0.26217247  0.17029148  0.61552053    -0.58500
H2250       H  0.30510864  0.16597503  0.61734488     0.16100
O2251       O  0.30633532  0.09688648  0.64790127    -0.59900
H2252       H  0.26369763  0.10115278  0.64531263     0.14600
H2253       H  0.19137273  0.11242449  0.67469929     0.46400
H2254       H  0.26497190  0.17088601  0.59940476     0.41800
H2255       H  0.30874119  0.10031714  0.66371846     0.45300
H2256       H  0.23183347  0.14988280  0.58512771     0.36700
C2257       C  0.38686656  0.11387615  0.23281831    -0.27500
C2258       C  0.36818434  0.12298356  0.24291437     0.02100
C2259       C  0.35040324  0.13016627  0.22987657     0.30200
C2260       C  0.35153105  0.12828239  0.20688363    -0.19300
C2261       C  0.37040818  0.11945755  0.19665189    -0.28700
C2262       C  0.38810845  0.11211115  0.20986610     0.44200
C2263       C  0.36752924  0.12473218  0.26713478     0.05400
O2264       O  0.33198940  0.13920109  0.23945264    -0.57200
H2265       H  0.33778942  0.13411033  0.19702707     0.18300
O2266       O  0.40667469  0.10311017  0.20056339    -0.63900
H2267       H  0.40058640  0.10822189  0.24281079     0.16800
C2268       C  0.36477547  0.10580276  0.28016032     0.29000
C2269       C  0.36549112  0.10745451  0.30314626    -0.24800
C2270       C  0.36918772  0.12789180  0.31352644    -0.24100
C2271       C  0.37183106  0.14691414  0.30030283     0.40500
C2272       C  0.37084040  0.14522152  0.27727736    -0.26600
O2273       O  0.36098735  0.08567738  0.27052514    -0.58500
H2274       H  0.36317857  0.09262534  0.31284211     0.16100
O2275       O  0.37549181  0.16720868  0.30960752    -0.59900
H2276       H  0.37311456  0.15986330  0.26727877     0.14600
H2277       H  0.40325314  0.08722397  0.19869523     0.46400
H2278       H  0.37574224  0.07877260  0.26907658     0.41800
H2279       H  0.39177475  0.16862959  0.31051996     0.45300
H2280       H  0.32229082  0.12650380  0.24291425     0.36700
C2281       C  0.36091957  0.11639356  0.48196636    -0.27500
C2282       C  0.37066936  0.13438084  0.49287331     0.02100
C2283       C  0.38024927  0.15139871  0.48023976     0.30200
C2284       C  0.37977177  0.15028539  0.45714688    -0.19300
C2285       C  0.37019111  0.13219749  0.44629754    -0.28700
C2286       C  0.36070211  0.11516014  0.45893158     0.44200
C2287       C  0.37153749  0.13448335  0.51737627     0.05400
O2288       O  0.39136789  0.16838498  0.49029304    -0.57200
H2289       H  0.38746602  0.16336861  0.44770524     0.18300
O2290       O  0.35109487  0.09724540  0.44898078    -0.63900
H2291       H  0.35342893  0.10317827  0.49138558     0.16800
C2292       C  0.36460275  0.15287323  0.52983809     0.29000
C2293       C  0.36579858  0.15233605  0.55289968    -0.24800
C2294       C  0.37311704  0.13334107  0.56398481    -0.24100
C2295       C  0.37964418  0.11481154  0.55152615     0.40500
C2296       C  0.37891683  0.11553945  0.52848729    -0.26600
O2297       O  0.35607004  0.17123050  0.51973326    -0.58500
H2298       H  0.36041068  0.16664969  0.56215614     0.16100
O2299       O  0.38689513  0.09590945  0.56163604    -0.59900
H2300       H  0.38428159  0.10121766  0.51922829     0.14600
H2301       H  0.33547990  0.10152432  0.44657235     0.46400
H2302       H  0.34019554  0.16794216  0.51751488     0.41800
H2303       H  0.40300890  0.09801060  0.56364257     0.45300
H2304       H  0.38306400  0.18197913  0.48647182     0.36700
C2305       C  0.77195585  0.10701829  0.63359596    -0.27500
C2306       C  0.76121928  0.11386236  0.61428672     0.02100
C2307       C  0.77381387  0.12139995  0.59629620     0.30200
C2308       C  0.79677566  0.12273897  0.59805624    -0.19300
C2309       C  0.80753353  0.11656178  0.61763920    -0.28700
C2310       C  0.79492084  0.10815002  0.63532387     0.44200
C2311       C  0.73685754  0.11456665  0.61369009     0.05400
O2312       O  0.76378755  0.12781097  0.57703928    -0.57200
H2313       H  0.80613789  0.12896438  0.58416286     0.18300
O2314       O  0.80478657  0.10112700  0.65444971    -0.63900
H2315       H  0.76246146  0.10127711  0.64760868     0.16800
C2316       C  0.72409555  0.09575335  0.61832652     0.29000
C2317       C  0.70105060  0.09730275  0.61871660    -0.24800
C2318       C  0.69042351  0.11757990  0.61490928    -0.24100
C2319       C  0.70331628  0.13634341  0.61006018     0.40500
C2320       C  0.72629828  0.13468507  0.60940561    -0.26600
O2321       O  0.73400088  0.07571192  0.62192650    -0.58500
H2322       H  0.69152180  0.08262986  0.62236768     0.16100
O2323       O  0.69368446  0.15632535  0.60558179    -0.59900
H2324       H  0.73596324  0.14932879  0.60597686     0.14600
H2325       H  0.80844680  0.08539570  0.65184552     0.46400
H2326       H  0.73273671  0.07306744  0.63801261     0.41800
H2327       H  0.69429361  0.16464019  0.61966402     0.45300
H2328       H  0.76181496  0.11404083  0.56844530     0.36700
C2329       C  0.63253647  0.10261932  0.72160161    -0.27500
C2330       C  0.63308705  0.12303346  0.73239349     0.02100
C2331       C  0.63280695  0.14258352  0.72003123     0.30200
C2332       C  0.63150568  0.14159323  0.69704638    -0.19300
C2333       C  0.63042261  0.12117376  0.68603392    -0.28700
C2334       C  0.63142492  0.10154483  0.69856540     0.44200
C2335       C  0.63273489  0.12382987  0.75663524     0.05400
O2336       O  0.63344417  0.16273182  0.73031731    -0.57200
H2337       H  0.63099696  0.15692129  0.68787714     0.18300
O2338       O  0.63090949  0.08124146  0.68860028    -0.63900
H2339       H  0.63279013  0.08748449  0.73111125     0.16800
C2340       C  0.61298344  0.12000336  0.76809547     0.29000
C2341       C  0.61264831  0.12117166  0.79110532    -0.24800
C2342       C  0.63199731  0.12582645  0.80305327    -0.24100
C2343       C  0.65185663  0.12961813  0.79140821     0.40500
C2344       C  0.65203685  0.12877914  0.76832445    -0.26600
O2345       O  0.59380360  0.11566589  0.75686513    -0.58500
H2346       H  0.59719991  0.11821169  0.79959977     0.16100
O2347       O  0.67103781  0.13469752  0.80231527    -0.59900
H2348       H  0.66728234  0.13190160  0.75951379     0.14600
H2349       H  0.64659902  0.07732312  0.68607541     0.46400
H2350       H  0.59314257  0.09937218  0.75565722     0.41800
H2351       H  0.67910752  0.12052858  0.80364620     0.45300
H2352       H  0.61779850  0.16656375  0.73321213     0.36700
C2353       C  0.47659450  0.14448592  0.64037673    -0.27500
C2354       C  0.48706869  0.12853319  0.62722475     0.02100
C2355       C  0.47405519  0.11374038  0.61485981     0.30200
C2356       C  0.45102648  0.11486504  0.61599552    -0.19300
C2357       C  0.44057795  0.13099879  0.62891456    -0.28700
C2358       C  0.45353701  0.14596879  0.64106553     0.44200
C2359       C  0.51152016  0.12732657  0.62660222     0.05400
O2360       O  0.48367541  0.09825403  0.60144414    -0.57200
H2361       H  0.44128276  0.10332744  0.60641087     0.18300
O2362       O  0.44383624  0.16137498  0.65450495    -0.63900
H2363       H  0.48631997  0.15568930  0.65034857     0.16800
C2364       C  0.52433125  0.14606175  0.62167854     0.29000
C2365       C  0.54736372  0.14443199  0.62082147    -0.24800
C2366       C  0.55805790  0.12424483  0.62480000    -0.24100
C2367       C  0.54517296  0.10550484  0.62985553     0.40500
C2368       C  0.52215809  0.10720860  0.63086832    -0.26600
O2369       O  0.51442489  0.16578403  0.61663970    -0.58500
H2370       H  0.55683844  0.15900547  0.61667058     0.16100
O2371       O  0.55485065  0.08554084  0.63432652    -0.59900
H2372       H  0.51255933  0.09272044  0.63504917     0.14600
H2373       H  0.44370692  0.17520434  0.64577450     0.46400
H2374       H  0.51684309  0.17531600  0.62972263     0.41800
H2375       H  0.55432039  0.07726554  0.62022586     0.45300
H2376       H  0.48655589  0.10600028  0.58732855     0.36700
C2377       C  0.59891885  0.13001390  0.22073140    -0.27500
C2378       C  0.61774448  0.12391639  0.23270645     0.02100
C2379       C  0.63732902  0.11881230  0.22133156     0.30200
C2380       C  0.63801973  0.12026096  0.19829304    -0.19300
C2381       C  0.61924273  0.12656788  0.18619471    -0.28700
C2382       C  0.59946110  0.13116723  0.19767181     0.44200
C2383       C  0.61702614  0.12358026  0.25709871     0.05400
O2384       O  0.65595893  0.11262084  0.23261633    -0.57200
H2385       H  0.65330344  0.11634668  0.18988277     0.18300
O2386       O  0.58071789  0.13744598  0.18662742    -0.63900
H2387       H  0.58371327  0.13386994  0.22931851     0.16800
C2388       C  0.61295128  0.14302757  0.26907250     0.29000
C2389       C  0.61347479  0.14271207  0.29215130    -0.24800
C2390       C  0.61758950  0.12302704  0.30369649    -0.24100
C2391       C  0.62105379  0.10339608  0.29160561     0.40500
C2392       C  0.62096848  0.10385396  0.26849991    -0.26600
O2393       O  0.60943594  0.16262513  0.25831765    -0.58500
H2394       H  0.61067488  0.15797624  0.30101877     0.16100
O2395       O  0.62539477  0.08383766  0.30211857    -0.59900
H2396       H  0.62404675  0.08875963  0.25942592     0.14600
H2397       H  0.57193932  0.12374562  0.18492711     0.46400
H2398       H  0.59321240  0.16473460  0.25840500     0.41800
H2399       H  0.61095184  0.07621388  0.30308942     0.45300
H2400       H  0.66340255  0.12661977  0.23663827     0.36700
C2401       C  0.51953811  0.14701808  0.37698797    -0.27500
C2402       C  0.50770796  0.12732044  0.37980508     0.02100
C2403       C  0.51938501  0.10724859  0.38101004     0.30200
C2404       C  0.54234143  0.10701146  0.37860254    -0.19300
C2405       C  0.55420996  0.12666904  0.37537348    -0.28700
C2406       C  0.54256093  0.14687111  0.37509811     0.44200
C2407       C  0.48320043  0.12775438  0.38039561     0.05400
O2408       O  0.50850820  0.08771182  0.38447584    -0.57200
H2409       H  0.55085573  0.09131269  0.37931086     0.18300
O2410       O  0.55336872  0.16658468  0.37256426    -0.63900
H2411       H  0.51087740  0.16260443  0.37580849     0.16800
C2412       C  0.47161873  0.14231399  0.39438558     0.29000
C2413       C  0.44848584  0.14278278  0.39397862    -0.24800
C2414       C  0.43664576  0.12863921  0.38000554    -0.24100
C2415       C  0.44816088  0.11403127  0.36613853     0.40500
C2416       C  0.47123039  0.11378168  0.36628073    -0.26600
O2417       O  0.48273391  0.15538674  0.40917025    -0.58500
H2418       H  0.43976270  0.15390991  0.40492808     0.16100
O2419       O  0.43702447  0.10024054  0.35205483    -0.59900
H2420       H  0.47981710  0.10281438  0.35507653     0.14600
H2421       H  0.55639348  0.17179130  0.38777913     0.46400
H2422       H  0.48110979  0.17067348  0.40356125     0.41800
H2423       H  0.43447051  0.10906480  0.33851573     0.45300
H2424       H  0.50669820  0.08664109  0.40069765     0.36700
C2425       C  0.60925221  0.14034450  0.47104977    -0.27500
C2426       C  0.62145967  0.12444669  0.48266912     0.02100
C2427       C  0.63419951  0.10899970  0.47083469     0.30200
C2428       C  0.63421167  0.10930368  0.44778514    -0.19300
C2429       C  0.62211958  0.12527244  0.43621651    -0.28700
C2430       C  0.60962879  0.14093260  0.44800073     0.44200
C2431       C  0.62066678  0.12392797  0.50708113     0.05400
O2432       O  0.64682603  0.09363572  0.48164682    -0.57200
H2433       H  0.64396302  0.09721682  0.43892111     0.18300
O2434       O  0.59726342  0.15649926  0.43716337    -0.63900
H2435       H  0.59908293  0.15211196  0.47985595     0.16800
C2436       C  0.62503627  0.14297524  0.51960890     0.29000
C2437       C  0.62482790  0.14189471  0.54264186    -0.24800
C2438       C  0.62031061  0.12196852  0.55362365    -0.24100
C2439       C  0.61567311  0.10295868  0.54102398     0.40500
C2440       C  0.61568571  0.10411481  0.51797512    -0.26600
O2441       O  0.63065591  0.16243269  0.50949543    -0.58500
H2442       H  0.62865944  0.15669733  0.55190104     0.16100
O2443       O  0.61080952  0.08323823  0.55098116    -0.59900
H2444       H  0.61186118  0.08941391  0.50854830     0.14600
H2445       H  0.58300128  0.14916518  0.43387630     0.46400
H2446       H  0.61761934  0.17217395  0.51126522     0.41800
H2447       H  0.62493384  0.07497822  0.55125885     0.45300
H2448       H  0.66108645  0.10109672  0.48459273     0.36700
C2449       C  0.12740415  0.64656616  0.77370336    -0.27500
C2450       C  0.12990357  0.62675373  0.76206678     0.02100
C2451       C  0.13119873  0.60676824  0.77372253     0.30200
C2452       C  0.13001089  0.60677716  0.79678404    -0.19300
C2453       C  0.12731250  0.62657780  0.80860927    -0.28700
C2454       C  0.12592116  0.64661548  0.79676086     0.44200
C2455       C  0.13067475  0.62712526  0.73770886     0.05400
O2456       O  0.13444484  0.58725415  0.76271568    -0.57200
H2457       H  0.13136620  0.59118328  0.80540268     0.18300
O2458       O  0.12335059  0.66638291  0.80746047    -0.63900
H2459       H  0.12631531  0.66204400  0.76482467     0.16800
C2460       C  0.11350281  0.61777973  0.72521027     0.29000
C2461       C  0.11413038  0.61878591  0.70218046    -0.24800
C2462       C  0.13182491  0.62899513  0.69121081    -0.24100
C2463       C  0.14909196  0.63829549  0.70379528     0.40500
C2464       C  0.14835068  0.63740362  0.72688500    -0.26600
O2465       O  0.09592837  0.60778477  0.73537887    -0.58500
H2466       H  0.10073552  0.61144998  0.69287269     0.16100
O2467       O  0.16662199  0.64850504  0.69376907    -0.59900
H2468       H  0.16161031  0.64473450  0.73639327     0.14600
H2469       H  0.10717997  0.66884284  0.80807881     0.46400
H2470       H  0.08531416  0.61983644  0.73844469     0.41800
H2471       H  0.16202879  0.66410154  0.69196883     0.45300
H2472       H  0.11995202  0.57967927  0.76295635     0.36700
C2473       C  0.11353988  0.73151040  0.63490660    -0.27500
C2474       C  0.12965481  0.74311676  0.62304668     0.02100
C2475       C  0.14611343  0.73134813  0.61164651     0.30200
C2476       C  0.14648256  0.70824065  0.61256439    -0.19300
C2477       C  0.13028288  0.69659941  0.62438086    -0.28700
C2478       C  0.11369333  0.70846542  0.63557000     0.44200
C2479       C  0.12960588  0.76750584  0.62376246     0.05400
O2480       O  0.16242793  0.74232434  0.60043093    -0.57200
H2481       H  0.15936338  0.69940862  0.60385759     0.18300
O2482       O  0.09778607  0.69774941  0.64757831    -0.63900
H2483       H  0.10084055  0.74040883  0.64381712     0.16800
C2484       C  0.12691341  0.78022641  0.60454075     0.29000
C2485       C  0.12632827  0.80327943  0.60595821    -0.24800
C2486       C  0.12819410  0.81403077  0.62646500    -0.24100
C2487       C  0.13083932  0.80112669  0.64570667     0.40500
C2488       C  0.13153263  0.77812672  0.64420385    -0.26600
O2489       O  0.12450892  0.77029353  0.58434981    -0.58500
H2490       H  0.12424221  0.81273208  0.59093494     0.16100
O2491       O  0.13307948  0.81073046  0.66607678    -0.59900
H2492       H  0.13360928  0.76848657  0.65912057     0.14600
H2493       H  0.10428107  0.69575965  0.66246898     0.46400
H2494       H  0.10844422  0.76758855  0.58277963     0.41800
H2495       H  0.11797422  0.81101452  0.67236081     0.45300
H2496       H  0.15890540  0.74029701  0.58458175     0.36700
C2497       C  0.14335760  0.62202738  0.27309177    -0.27500
C2498       C  0.12335949  0.62515004  0.26193109     0.02100
C2499       C  0.10388896  0.62863556  0.27403837     0.30200
C2500       C  0.10461648  0.62890050  0.29711629    -0.19300
C2501       C  0.12469144  0.62601290  0.30842190    -0.28700
C2502       C  0.14420404  0.62260237  0.29612180     0.44200
C2503       C  0.12308946  0.62431748  0.23762101     0.05400
O2504       O  0.08398283  0.63085779  0.26344922    -0.57200
H2505       H  0.08939676  0.63142988  0.30614794     0.18300
O2506       O  0.16411138  0.61921555  0.30636643    -0.63900
H2507       H  0.15842623  0.61924448  0.26386499     0.16800
C2508       C  0.11703665  0.64287301  0.22509880     0.29000
C2509       C  0.11745799  0.64181883  0.20207440    -0.24800
C2510       C  0.12392250  0.62237936  0.19118916    -0.24100
C2511       C  0.13001666  0.60380680  0.20382802     0.40500
C2512       C  0.12972569  0.60495973  0.22686487    -0.26600
O2513       O  0.11098389  0.66219316  0.23520970    -0.58500
H2514       H  0.11268574  0.65628785  0.19272639     0.16100
O2515       O  0.13702208  0.58471549  0.19390493    -0.59900
H2516       H  0.13465560  0.59066207  0.23640228     0.14600
H2517       H  0.17137091  0.63388620  0.30661040     0.46400
H2518       H  0.12496878  0.67031351  0.23765603     0.41800
H2519       H  0.12382858  0.57503003  0.19345112     0.45300
H2520       H  0.08004819  0.64665817  0.26485627     0.36700
C2521       C  0.14587590  0.62065211  0.52300822    -0.27500
C2522       C  0.12914961  0.63235992  0.51206233     0.02100
C2523       C  0.11311995  0.64363156  0.52457541     0.30200
C2524       C  0.11376440  0.64273784  0.54762339    -0.19300
C2525       C  0.13059043  0.63114203  0.55856175    -0.28700
C2526       C  0.14685461  0.62021796  0.54605283     0.44200
C2527       C  0.12823374  0.63211506  0.48763884     0.05400
O2528       O  0.09682009  0.65564854  0.51444694    -0.57200
H2529       H  0.10125634  0.65144180  0.55698064     0.18300
O2530       O  0.16314905  0.60817896  0.55615689    -0.63900
H2531       H  0.15805118  0.61149619  0.51365799     0.16800
C2532       C  0.14685467  0.63763868  0.47489976     0.29000
C2533       C  0.14581216  0.63648649  0.45187292    -0.24800
C2534       C  0.12632193  0.62993431  0.44114255    -0.24100
C2535       C  0.10758098  0.62471103  0.45393469     0.40500
C2536       C  0.10871776  0.62565495  0.47696407    -0.26600
O2537       O  0.16586324  0.64497935  0.48480377    -0.58500
H2538       H  0.16030241  0.64094781  0.44239947     0.16100
O2539       O  0.08829904  0.61792005  0.44419928    -0.59900
H2540       H  0.09435335  0.62101591  0.48654478     0.14600
H2541       H  0.17624805  0.61797775  0.55634952     0.46400
H2542       H  0.17663272  0.63275698  0.48319744     0.41800
H2543       H  0.07900229  0.63134782  0.44325386     0.45300
H2544       H  0.10348452  0.67029719  0.51154554     0.36700
C2545       C  0.12342189  0.23245183  0.64995527    -0.27500
C2546       C  0.11974090  0.24310952  0.62978730     0.02100
C2547       C  0.11635832  0.23054145  0.61061453     0.30200
C2548       C  0.11727731  0.20754065  0.61164700    -0.19300
C2549       C  0.12137841  0.19670748  0.63175440    -0.28700
C2550       C  0.12418207  0.20942023  0.65109269     0.44200
C2551       C  0.12059078  0.26736777  0.62872063     0.05400
O2552       O  0.11231726  0.24062851  0.59076317    -0.57200
H2553       H  0.11474586  0.19818019  0.59662811     0.18300
O2554       O  0.12853671  0.19962143  0.67102041    -0.63900
H2555       H  0.12619410  0.24205402  0.66478456     0.16800
C2556       C  0.10473629  0.28036671  0.63953801     0.29000
C2557       C  0.10615382  0.30337158  0.63853218    -0.24800
C2558       C  0.12363563  0.31366674  0.62729544    -0.24100
C2559       C  0.13954357  0.30056236  0.61653900     0.40500
C2560       C  0.13779370  0.27756876  0.61711775    -0.26600
O2561       O  0.08751612  0.27071232  0.65060947    -0.58500
H2562       H  0.09374774  0.31318224  0.64687488     0.16100
O2563       O  0.15636241  0.31004813  0.60474113    -0.59900
H2564       H  0.15005506  0.26763221  0.60870600     0.14600
H2565       H  0.11403139  0.19855653  0.67852340     0.46400
H2566       H  0.09210868  0.27046226  0.66630012     0.41800
H2567       H  0.16935312  0.30966068  0.61469197     0.45300
H2568       H  0.09610493  0.24279028  0.59027813     0.36700
C2569       C  0.14892611  0.38384905  0.72808165    -0.27500
C2570       C  0.12947761  0.37999459  0.73991235     0.02100
C2571       C  0.10965144  0.37616031  0.72853638     0.30200
C2572       C  0.10939708  0.37634753  0.70546533    -0.19300
C2573       C  0.12889383  0.37999355  0.69341976    -0.28700
C2574       C  0.14879389  0.38383377  0.70499703     0.44200
C2575       C  0.13008660  0.37959976  0.76418540     0.05400
O2576       O  0.09038419  0.37261935  0.73987291    -0.57200
H2577       H  0.09391551  0.37340615  0.69700733     0.18300
O2578       O  0.16821601  0.38758747  0.69400119    -0.63900
H2579       H  0.16427874  0.38674408  0.73680079     0.16800
C2580       C  0.12991459  0.35945990  0.77558568     0.29000
C2581       C  0.13020308  0.35929074  0.79863404    -0.24800
C2582       C  0.13070020  0.37911858  0.81070266    -0.24100
C2583       C  0.13089402  0.39935520  0.79909616     0.40500
C2584       C  0.13076883  0.39943461  0.77599066    -0.26600
O2585       O  0.12931752  0.33985314  0.76430343    -0.58500
H2586       H  0.12997472  0.34353018  0.80704798     0.16100
O2587       O  0.13132713  0.41914136  0.81006177    -0.59900
H2588       H  0.13093936  0.41502358  0.76724357     0.14600
H2589       H  0.16890949  0.40379881  0.69195522     0.46400
H2590       H  0.14498404  0.33604850  0.76150681     0.41800
H2591       H  0.11564333  0.42363824  0.81140057     0.45300
H2592       H  0.08912510  0.35636857  0.74120887     0.36700
C2593       C  0.11213223  0.48177879  0.63484284    -0.27500
C2594       C  0.13054496  0.49275100  0.62607412     0.02100
C2595       C  0.14844102  0.48020018  0.61808158     0.30200
C2596       C  0.14770085  0.45713624  0.61891591    -0.19300
C2597       C  0.12906207  0.44618046  0.62724545    -0.28700
C2598       C  0.11122074  0.45874822  0.63535206     0.44200
C2599       C  0.13091488  0.51723852  0.62547012     0.05400
O2600       O  0.16658693  0.49029058  0.60907824    -0.57200
H2601       H  0.16155101  0.44779768  0.61253431     0.18300
O2602       O  0.09284522  0.44874143  0.64398576    -0.63900
H2603       H  0.09843099  0.49110861  0.64152992     0.16800
C2604       C  0.11314100  0.52928477  0.61651621     0.29000
C2605       C  0.11373965  0.55236643  0.61635473    -0.24800
C2606       C  0.13192237  0.56386719  0.62498724    -0.24100
C2607       C  0.14969325  0.55179655  0.63397727     0.40500
C2608       C  0.14905954  0.52871779  0.63419432    -0.26600
O2609       O  0.09554537  0.51861724  0.60703663    -0.58500
H2610       H  0.09998330  0.56127857  0.60919809     0.16100
O2611       O  0.16764946  0.56232815  0.64287310    -0.59900
H2612       H  0.16269578  0.51975011  0.64150494     0.14600
H2613       H  0.09630033  0.44636211  0.65980313     0.46400
H2614       H  0.08301819  0.52085082  0.61733335     0.41800
H2615       H  0.16383645  0.56476815  0.65860091     0.45300
H2616       H  0.16277650  0.49270295  0.59335106     0.36700
C2617       C  0.10444244  0.38442757  0.27569676    -0.27500
C2618       C  0.12306437  0.37690457  0.26427552     0.02100
C2619       C  0.14194140  0.37039382  0.27606606     0.30200
C2620       C  0.14193426  0.37117771  0.29912937    -0.19300
C2621       C  0.12308750  0.37812734  0.31072269    -0.28700
C2622       C  0.10431381  0.38505976  0.29875941     0.44200
C2623       C  0.12263466  0.37592909  0.24000168     0.05400
O2624       O  0.16063205  0.36379574  0.26512563    -0.57200
H2625       H  0.15661321  0.36601653  0.30794853     0.18300
O2626       O  0.08578842  0.39257553  0.30937548    -0.63900
H2627       H  0.08990365  0.38965585  0.26667526     0.16800
C2628       C  0.12245697  0.35555625  0.22894881     0.29000
C2629       C  0.12241451  0.35496062  0.20588679    -0.24800
C2630       C  0.12236837  0.37458132  0.19350509    -0.24100
C2631       C  0.12212770  0.39502430  0.20477499     0.40500
C2632       C  0.12227556  0.39552899  0.22783681    -0.26600
O2633       O  0.12230749  0.33614513  0.24057107    -0.58500
H2634       H  0.12241565  0.33906978  0.19771018     0.16100
O2635       O  0.12213325  0.41464573  0.19351380    -0.59900
H2636       H  0.12230818  0.41129065  0.23628065     0.14600
H2637       H  0.08831278  0.40858777  0.31157469     0.46400
H2638       H  0.10655756  0.33329295  0.24392794     0.41800
H2639       H  0.10635544  0.41875741  0.19205176     0.45300
H2640       H  0.16032029  0.34745442  0.26552468     0.36700
C2641       C  0.14310364  0.47888001  0.38722847    -0.27500
C2642       C  0.12569975  0.49063881  0.37751697     0.02100
C2643       C  0.10820796  0.47910026  0.36752968     0.30200
C2644       C  0.10820037  0.45604381  0.36749452    -0.19300
C2645       C  0.12554436  0.44420717  0.37727848    -0.28700
C2646       C  0.14306961  0.45581002  0.38728533     0.44200
C2647       C  0.12604865  0.51497251  0.37764846     0.05400
O2648       O  0.09159895  0.49026381  0.35691646    -0.57200
H2649       H  0.09472591  0.44740847  0.35950542     0.18300
O2650       O  0.16005681  0.44481730  0.39744847    -0.63900
H2651       H  0.15661068  0.48764479  0.39501890     0.16800
C2652       C  0.10918921  0.52706441  0.38807030     0.29000
C2653       C  0.10931094  0.55009603  0.38716985    -0.24800
C2654       C  0.12641409  0.56139737  0.37638717    -0.24100
C2655       C  0.14352120  0.54925481  0.36630796     0.40500
C2656       C  0.14327350  0.52619599  0.36706020    -0.26600
O2657       O  0.09261378  0.51651474  0.39930038    -0.58500
H2658       H  0.09616719  0.55916008  0.39522274     0.16100
O2659       O  0.16027512  0.55970859  0.35525586    -0.59900
H2660       H  0.15633234  0.51701891  0.35899196     0.14600
H2661       H  0.15486621  0.44209167  0.41272018     0.46400
H2662       H  0.09872747  0.51358227  0.41419135     0.41800
H2663       H  0.15476760  0.56163202  0.33996840     0.45300
H2664       H  0.07841304  0.48861646  0.36648226     0.36700
C2665       C  0.14072759  0.36947217  0.47857847    -0.27500
C2666       C  0.12362824  0.38033595  0.48979055     0.02100
C2667       C  0.10683634  0.39080829  0.47761719     0.30200
C2668       C  0.10709539  0.38990758  0.45454353    -0.19300
C2669       C  0.12409465  0.37887508  0.44331925    -0.28700
C2670       C  0.14105257  0.36866060  0.45553648     0.44200
C2671       C  0.12371026  0.38072069  0.51419023     0.05400
O2672       O  0.09080842  0.40288840  0.48812301    -0.57200
H2673       H  0.09416582  0.39822805  0.44540310     0.18300
O2674       O  0.15787915  0.35761682  0.44517674    -0.63900
H2675       H  0.15375765  0.36135946  0.48776486     0.16800
C2676       C  0.10563138  0.37272531  0.52641311     0.29000
C2677       C  0.10626950  0.37302194  0.54947701    -0.24800
C2678       C  0.12504003  0.38068783  0.56070312    -0.24100
C2679       C  0.14320441  0.38853466  0.54841480     0.40500
C2680       C  0.14242703  0.38847885  0.52537226    -0.26600
O2681       O  0.08748645  0.36407958  0.51599429    -0.58500
H2682       H  0.09224478  0.36671657  0.55859446     0.16100
O2683       O  0.16177120  0.39641952  0.55870573    -0.59900
H2684       H  0.15647501  0.39462183  0.51616925     0.14600
H2685       H  0.15231359  0.34238470  0.44301160     0.46400
H2686       H  0.09140758  0.34853826  0.51274381     0.41800
H2687       H  0.15883217  0.41230766  0.56125766     0.45300
H2688       H  0.07677665  0.39485512  0.48548605     0.36700
C2689       C  0.72625422  0.84640944  0.37490812    -0.27500
C2690       C  0.73748640  0.86659199  0.37581799     0.02100
C2691       C  0.72547725  0.88638529  0.37604646     0.30200
C2692       C  0.70245320  0.88588020  0.37535887    -0.19300
C2693       C  0.69097155  0.86573027  0.37462719    -0.28700
C2694       C  0.70313740  0.84583371  0.37437090     0.44200
C2695       C  0.76179419  0.86703708  0.37621945     0.05400
O2696       O  0.73618554  0.90632762  0.37615483    -0.57200
H2697       H  0.69359944  0.90140650  0.37542114     0.18300
O2698       O  0.69270787  0.82576674  0.37374235    -0.63900
H2699       H  0.73545367  0.83107815  0.37470956     0.16800
C2700       C  0.77318505  0.87451501  0.39498551     0.29000
C2701       C  0.79618160  0.87622891  0.39457805    -0.24800
C2702       C  0.80816675  0.87051390  0.37555870    -0.24100
C2703       C  0.79665921  0.86249895  0.35692105     0.40500
C2704       C  0.77363187  0.86082429  0.35738458    -0.26600
O2705       O  0.76193497  0.88039368  0.41372232    -0.58500
H2706       H  0.80462036  0.88224115  0.40915116     0.16100
O2707       O  0.80766868  0.85630162  0.33814777    -0.59900
H2708       H  0.76494185  0.85498884  0.34287955     0.14600
H2709       H  0.69167440  0.82196284  0.35786142     0.46400
H2710       H  0.76015531  0.86651705  0.42217224     0.41800
H2711       H  0.81106746  0.84043207  0.34021478     0.45300
H2712       H  0.73536756  0.91159191  0.39162277     0.36700
C2713       C  0.86963804  0.77372280  0.39925484    -0.27500
C2714       C  0.87409333  0.76180334  0.37998692     0.02100
C2715       C  0.87908171  0.77305038  0.36038428     0.30200
C2716       C  0.87951798  0.79608679  0.36016498    -0.19300
C2717       C  0.87520856  0.80824846  0.37945989    -0.28700
C2718       C  0.87012665  0.79680663  0.39913025     0.44200
C2719       C  0.87365447  0.73755684  0.38042713     0.05400
O2720       O  0.88310038  0.76163200  0.34126121    -0.57200
H2721       H  0.88329929  0.80442303  0.34481607     0.18300
O2722       O  0.86549647  0.80792795  0.41828534    -0.63900
H2723       H  0.86575988  0.76508005  0.41441492     0.16800
C2724       C  0.89332758  0.72548468  0.38234657     0.29000
C2725       C  0.89275227  0.70243888  0.38191549    -0.24800
C2726       C  0.87261685  0.69108948  0.37963388    -0.24100
C2727       C  0.85286001  0.70339431  0.37780789     0.40500
C2728       C  0.85351764  0.72645925  0.37834925    -0.26600
O2729       O  0.91322278  0.73610755  0.38430584    -0.58500
H2730       H  0.90815118  0.69345947  0.38331073     0.16100
O2731       O  0.83282854  0.69314745  0.37533294    -0.59900
H2732       H  0.83830304  0.73573850  0.37679246     0.14600
H2733       H  0.84926876  0.81006485  0.41818009     0.46400
H2734       H  0.91496103  0.73904180  0.40030336     0.41800
H2735       H  0.83055765  0.69200760  0.35916735     0.45300
H2736       H  0.89929842  0.75933352  0.34097043     0.36700
C2737       C  0.87960343  0.22543052  0.39098544    -0.27500
C2738       C  0.87640100  0.23718432  0.37133178     0.02100
C2739       C  0.87321424  0.22556269  0.35149829     0.30200
C2740       C  0.87245289  0.20248896  0.35163024    -0.19300
C2741       C  0.87473631  0.19061045  0.37142145    -0.28700
C2742       C  0.87886646  0.20234077  0.39116243     0.44200
C2743       C  0.87581192  0.26157990  0.37173887     0.05400
O2744       O  0.87145464  0.23666688  0.33183843    -0.57200
H2745       H  0.86979965  0.19392241  0.33616666     0.18300
O2746       O  0.88199965  0.19150568  0.41077780    -0.63900
H2747       H  0.88229938  0.23421934  0.40632427     0.16800
C2748       C  0.85676712  0.27302932  0.36498252     0.29000
C2749       C  0.85659709  0.29607204  0.36480412    -0.24800
C2750       C  0.87521227  0.30815093  0.37152762    -0.24100
C2751       C  0.89403804  0.29663017  0.37907794     0.40500
C2752       C  0.89422407  0.27351645  0.37910017    -0.26600
O2753       O  0.83816818  0.26182084  0.35858362    -0.58500
H2754       H  0.84184627  0.30449577  0.35921280     0.16100
O2755       O  0.91232627  0.30771756  0.38650105    -0.59900
H2756       H  0.90885804  0.26487214  0.38467621     0.14600
H2757       H  0.89811693  0.18874134  0.41162319     0.46400
H2758       H  0.83015280  0.25854163  0.37246099     0.41800
H2759       H  0.90967460  0.31015242  0.40245916     0.45300
H2760       H  0.85585941  0.23492180  0.32718015     0.36700
C2761       C  0.72173398  0.10635841  0.35685852    -0.27500
C2762       C  0.73326591  0.12171271  0.36977988     0.02100
C2763       C  0.72146583  0.13715494  0.38244248     0.30200
C2764       C  0.69839557  0.13749986  0.38162962    -0.19300
C2765       C  0.68677319  0.12212794  0.36877682    -0.28700
C2766       C  0.69860620  0.10634399  0.35645496     0.44200
C2767       C  0.75762936  0.12203082  0.36947085     0.05400
O2768       O  0.73240565  0.15245644  0.39504139    -0.57200
H2769       H  0.68954816  0.14965412  0.39131088     0.18300
O2770       O  0.68776796  0.09113977  0.34366088    -0.63900
H2771       H  0.73071108  0.09439322  0.34706435     0.16800
C2772       C  0.76984824  0.11643713  0.38836693     0.29000
C2773       C  0.79287179  0.11792773  0.38805981    -0.24800
C2774       C  0.80412147  0.12472829  0.36892949    -0.24100
C2775       C  0.79178979  0.13013933  0.34992397     0.40500
C2776       C  0.76871743  0.12865271  0.35028733    -0.26600
O2777       O  0.75941788  0.10944342  0.40719046    -0.58500
H2778       H  0.80195350  0.11342642  0.40279284     0.16100
O2779       O  0.80202896  0.13711903  0.33099869    -0.59900
H2780       H  0.75940079  0.13306787  0.33567224     0.14600
H2781       H  0.68562619  0.09844938  0.32918189     0.46400
H2782       H  0.75828094  0.09320364  0.40566325     0.41800
H2783       H  0.80314250  0.15336943  0.33248739     0.45300
H2784       H  0.73175020  0.14670935  0.41034139     0.36700
C2785       C  0.87032570  0.97507757  0.35162499    -0.27500
C2786       C  0.87184762  0.98744761  0.37111327     0.02100
C2787       C  0.87401115  0.97640735  0.39143551     0.30200
C2788       C  0.87431012  0.95336205  0.39207087    -0.19300
C2789       C  0.87276846  0.94088201  0.37257229    -0.28700
C2790       C  0.87097793  0.95202914  0.35217719     0.44200
C2791       C  0.87082588  0.01182509  0.37010835     0.05400
O2792       O  0.87595564  0.98799380  0.41078508    -0.57200
H2793       H  0.87590179  0.94526922  0.40792695     0.18300
O2794       O  0.86935352  0.94064619  0.33268575    -0.63900
H2795       H  0.86837359  0.98331933  0.33588559     0.16800
C2796       C  0.88514329  0.02386454  0.35630468     0.29000
C2797       C  0.88394797  0.04691023  0.35579381    -0.24800
C2798       C  0.86880346  0.05819385  0.36914460    -0.24100
C2799       C  0.85430843  0.04619874  0.38271741     0.40500
C2800       C  0.85531512  0.02317208  0.38305523    -0.26600
O2801       O  0.90114442  0.01331301  0.34424508    -0.58500
H2802       H  0.89537762  0.05601882  0.34549253     0.16100
O2803       O  0.83903751  0.05682430  0.39561538    -0.59900
H2804       H  0.84392510  0.01412500  0.39344394     0.14600
H2805       H  0.88464899  0.93979337  0.32694598     0.46400
H2806       H  0.89605732  0.01403947  0.32870670     0.41800
H2807       H  0.82612625  0.05927405  0.38585702     0.45300
H2808       H  0.89190460  0.99137555  0.41218154     0.36700
C2809       C  0.11526878  0.77660592  0.35694579    -0.27500
C2810       C  0.12238661  0.76490112  0.37554453     0.02100
C2811       C  0.12961187  0.77643678  0.39429540     0.30200
C2812       C  0.12991011  0.79951191  0.39421216    -0.19300
C2813       C  0.12317843  0.81141889  0.37545821    -0.28700
C2814       C  0.11575198  0.79970630  0.35671388     0.44200
C2815       C  0.12279955  0.74060680  0.37504283     0.05400
O2816       O  0.13667675  0.76526692  0.41266689    -0.57200
H2817       H  0.13568849  0.80809467  0.40879306     0.18300
O2818       O  0.10834148  0.81062373  0.33832769    -0.63900
H2819       H  0.10955316  0.76777806  0.34248010     0.16800
C2820       C  0.10351133  0.72829117  0.37865417     0.29000
C2821       C  0.10430481  0.70522631  0.37801327    -0.24800
C2822       C  0.12429394  0.69411408  0.37393295    -0.24100
C2823       C  0.14360802  0.70665458  0.37021276     0.40500
C2824       C  0.14273666  0.72970382  0.37091059    -0.26600
O2825       O  0.08383763  0.73867096  0.38284645    -0.58500
H2826       H  0.08925798  0.69604029  0.38097703     0.16100
O2827       O  0.16345013  0.69664380  0.36591803    -0.59900
H2828       H  0.15766323  0.73914004  0.36808759     0.14600
H2829       H  0.12102174  0.81068753  0.32798023     0.46400
H2830       H  0.08337134  0.74053891  0.39909554     0.41800
H2831       H  0.16405906  0.69517225  0.34962753     0.45300
H2832       H  0.12316000  0.76257629  0.42148673     0.36700
C2833       C  0.22594138  0.88898821  0.35882882    -0.27500
C2834       C  0.23758656  0.87962358  0.37645841     0.02100
C2835       C  0.22598909  0.86960413  0.39383472     0.30200
C2836       C  0.20290236  0.86920107  0.39354329    -0.19300
C2837       C  0.19110248  0.87832906  0.37577999    -0.28700
C2838       C  0.20284344  0.88836383  0.35835235     0.44200
C2839       C  0.26190112  0.87983135  0.37630507     0.05400
O2840       O  0.23710596  0.86049108  0.41132131    -0.57200
H2841       H  0.19421770  0.86149144  0.40713092     0.18300
O2842       O  0.19195016  0.89787729  0.34094102    -0.63900
H2843       H  0.23481543  0.89670788  0.34536682     0.16800
C2844       C  0.27371487  0.86099230  0.36983729     0.29000
C2845       C  0.29678130  0.86123114  0.37002163    -0.24800
C2846       C  0.30843337  0.88025879  0.37639043    -0.24100
C2847       C  0.29647146  0.89922059  0.38275846     0.40500
C2848       C  0.27333844  0.89886517  0.38270874    -0.26600
O2849       O  0.26281547  0.84221761  0.36344604    -0.58500
H2850       H  0.30556549  0.84650037  0.36498299     0.16100
O2851       O  0.30715518  0.91784560  0.38990569    -0.59900
H2852       H  0.26429086  0.91340246  0.38785732     0.14600
H2853       H  0.18888594  0.91323321  0.34568180     0.46400
H2854       H  0.26014344  0.84405813  0.34741186     0.41800
H2855       H  0.30770397  0.92773875  0.37687667     0.45300
H2856       H  0.23913666  0.84474900  0.40736887     0.36700
C2857       C  0.02330193  0.89080691  0.36244831    -0.27500
C2858       C  0.01186002  0.88004356  0.37946699     0.02100
C2859       C  0.02390057  0.86910231  0.39608965     0.30200
C2860       C  0.04701301  0.86906099  0.39547573    -0.19300
C2861       C  0.05841074  0.87954532  0.37827672    -0.28700
C2862       C  0.04636564  0.89062552  0.36175734     0.44200
C2863       C  0.98740244  0.87945795  0.37896360     0.05400
O2864       O  0.01321171  0.85721911  0.41212905    -0.57200
H2865       H  0.05602908  0.86025585  0.40816498     0.18300
O2866       O  0.05694025  0.90141910  0.34491086    -0.63900
H2867       H  0.01427925  0.89936195  0.34959278     0.16800
C2868       C  0.97467809  0.88604327  0.39726546     0.29000
C2869       C  0.95164377  0.88463655  0.39642030    -0.24800
C2870       C  0.94085236  0.87727905  0.37724375    -0.24100
C2871       C  0.95362236  0.87123380  0.35873579     0.40500
C2872       C  0.97664975  0.87233564  0.35972978    -0.26600
O2873       O  0.98453940  0.89423311  0.41592129    -0.58500
H2874       H  0.94219168  0.88969439  0.41072603     0.16100
O2875       O  0.94385250  0.86406517  0.33961530    -0.59900
H2876       H  0.98618954  0.86731510  0.34546417     0.14600
H2877       H  0.06021752  0.91633812  0.35076664     0.46400
H2878       H  0.98683501  0.91013768  0.41293029     0.41800
H2879       H  0.94252302  0.84784884  0.34129799     0.45300
H2880       H  0.01643478  0.86493196  0.42621468     0.36700
C2881       C  0.26887320  0.11369284  0.37139301    -0.27500
C2882       C  0.25752879  0.13228065  0.37919803     0.02100
C2883       C  0.26959218  0.15061390  0.38681510     0.30200
C2884       C  0.29268725  0.15007513  0.38674210    -0.19300
C2885       C  0.30406587  0.13134248  0.37920014    -0.28700
C2886       C  0.29192149  0.11313886  0.37125938     0.44200
C2887       C  0.23311844  0.13215355  0.37947592     0.05400
O2888       O  0.25896615  0.16912740  0.39432962    -0.57200
H2889       H  0.30170664  0.16425648  0.39283728     0.18300
O2890       O  0.30236422  0.09475009  0.36319427    -0.63900
H2891       H  0.25979263  0.09945191  0.36552075     0.16800
C2892       C  0.22105242  0.12780615  0.36012513     0.29000
C2893       C  0.19804656  0.12666165  0.36088615    -0.24800
C2894       C  0.18659263  0.12991016  0.38080048    -0.24100
C2895       C  0.19872578  0.13452892  0.40015682     0.40500
C2896       C  0.22179447  0.13567184  0.39934870    -0.26600
O2897       O  0.23160882  0.12470028  0.34034592    -0.58500
H2898       H  0.18916911  0.12319623  0.34575513     0.16100
O2899       O  0.18827372  0.13841146  0.41984611    -0.59900
H2900       H  0.23090341  0.13898424  0.41437983     0.14600
H2901       H  0.30492925  0.09788405  0.34734155     0.46400
H2902       H  0.23326435  0.13967242  0.33398139     0.41800
H2903       H  0.18835709  0.12403929  0.42764934     0.45300
H2904       H  0.25635789  0.17826217  0.38102667     0.36700
C2905       C  0.12817611  0.22930575  0.36202757    -0.27500
C2906       C  0.12198010  0.24086910  0.38103422     0.02100
C2907       C  0.11534971  0.22913367  0.39991997     0.30200
C2908       C  0.11485251  0.20605537  0.39954518    -0.19300
C2909       C  0.12082427  0.19438225  0.38040307    -0.28700
C2910       C  0.12758500  0.20628703  0.36154369     0.44200
C2911       C  0.12222628  0.26520246  0.38075031     0.05400
O2912       O  0.10938507  0.24007663  0.41881132    -0.57200
H2913       H  0.10965856  0.19730060  0.41423351     0.18300
O2914       O  0.13424686  0.19563993  0.34271539    -0.63900
H2915       H  0.13327596  0.23819732  0.34738209     0.16800
C2916       C  0.14186322  0.27680484  0.37656877     0.29000
C2917       C  0.14162699  0.29983774  0.37565793    -0.24800
C2918       C  0.12187764  0.31167530  0.37859951    -0.24100
C2919       C  0.10219006  0.29992339  0.38283692     0.40500
C2920       C  0.10251175  0.27687438  0.38387671    -0.26600
O2921       O  0.16147356  0.26576039  0.37403492    -0.58500
H2922       H  0.15700433  0.30841505  0.37256635     0.16100
O2923       O  0.08250836  0.31069115  0.38584204    -0.59900
H2924       H  0.08725572  0.26804336  0.38689187     0.14600
H2925       H  0.12112404  0.19559369  0.33293496     0.46400
H2926       H  0.16435920  0.26571385  0.35793230     0.41800
H2927       H  0.08128136  0.31293253  0.40200760     0.45300
H2928       H  0.12340655  0.24277104  0.42681342     0.36700
C2929       C  0.01906517  0.11192460  0.39169066    -0.27500
C2930       C  0.00776257  0.12259687  0.37450212     0.02100
C2931       C  0.01975001  0.13524035  0.35913502     0.30200
C2932       C  0.04273334  0.13669365  0.36087856    -0.19300
C2933       C  0.05401859  0.12596380  0.37801162    -0.28700
C2934       C  0.04200405  0.11356697  0.39355482     0.44200
C2935       C  0.98337506  0.12149152  0.37364851     0.05400
O2936       O  0.00901814  0.14724334  0.34319783    -0.57200
H2937       H  0.05172888  0.14656108  0.34899120     0.18300
O2938       O  0.05250938  0.10273288  0.41043064    -0.63900
H2939       H  0.01004121  0.10222620  0.40369373     0.16800
C2940       C  0.97207082  0.11508153  0.35435454     0.29000
C2941       C  0.94897864  0.11550230  0.35382984    -0.24800
C2942       C  0.93683032  0.12167486  0.37258662    -0.24100
C2943       C  0.94821855  0.12729199  0.39211435     0.40500
C2944       C  0.97124874  0.12718055  0.39249321    -0.26600
O2945       O  0.98340029  0.10821498  0.33600722    -0.58500
H2946       H  0.94056428  0.11076157  0.33877798     0.16100
O2947       O  0.93707357  0.13332132  0.41086584    -0.59900
H2948       H  0.97970108  0.13203402  0.40749137     0.14600
H2949       H  0.05680533  0.08822561  0.40420468     0.46400
H2950       H  0.98621258  0.09228471  0.33841084     0.41800
H2951       H  0.93500144  0.14950777  0.40961655     0.45300
H2952       H  0.01332380  0.14046434  0.32892420     0.36700
C2953       C  0.12892955  0.02694776  0.36071780    -0.27500
C2954       C  0.12074702  0.01510687  0.37883374     0.02100
C2955       C  0.11237375  0.02673055  0.39714517     0.30200
C2956       C  0.11256986  0.04982190  0.39725649    -0.19300
C2957       C  0.12069724  0.06167449  0.37907698    -0.28700
C2958       C  0.12888539  0.04999742  0.36068541     0.44200
C2959       C  0.12153153  0.99067317  0.37860353     0.05400
O2960       O  0.10380781  0.01567771  0.41493367    -0.57200
H2961       H  0.10603150  0.05847396  0.41147048     0.18300
O2962       O  0.13724845  0.06090164  0.34270912    -0.63900
H2963       H  0.13575690  0.01827953  0.34665678     0.16800
C2964       C  0.11240206  0.97857181  0.36098499     0.29000
C2965       C  0.11381913  0.95553239  0.36086408    -0.24800
C2966       C  0.12422054  0.94419388  0.37819125    -0.24100
C2967       C  0.13345342  0.95631971  0.39576190     0.40500
C2968       C  0.13205514  0.97936007  0.39586703    -0.26600
O2969       O  0.10122727  0.98908506  0.34432426    -0.58500
H2970       H  0.10637893  0.94649177  0.34734415     0.16100
O2971       O  0.14414237  0.94587811  0.41276251    -0.59900
H2972       H  0.13950012  0.98846081  0.40933981     0.14600
H2973       H  0.15298427  0.06363883  0.34629120     0.46400
H2974       H  0.11109668  0.98828725  0.33129247     0.41800
H2975       H  0.15961896  0.94418182  0.40770992     0.45300
H2976       H  0.08812617  0.01294149  0.41112944     0.36700
loop_ 
_geom_bond_atom_site_label_1 
_geom_bond_atom_site_label_2 
_geom_bond_distance 
_geom_bond_site_symmetry_2 
_ccdc_geom_bond_type 
O1            V9   1.900       .  S
O1           C11   1.265       .  A
O2            V9   1.901       .  S
O2           C12   1.265       .  A
O3            V9   1.899       .  S
O3           C13   1.264       .  A
O4            V9   1.901       .  S
O4           C14   1.265       .  A
O5           V10   1.891       .  S
O5           C14   1.263       .  A
O6           V10   1.893       .  S
O6           C13   1.263       .  A
O7           V10   1.891       .  S
O7           C12   1.263       .  A
O8           V10   1.894       .  S
O8           C11   1.264       .  A
V9           V10   2.086       .  T
C11        C2957   1.478       .  S
C12        C2909   1.480       .  S
C13        C2933   1.472       .  S
C14        C2894   1.481       .  S
O15          V23   1.898       .  S
O15          C25   1.265       .  A
O16          V23   1.900       .  S
O16          C26   1.265       .  A
O17          V23   1.898       .  S
O17          C27   1.264       .  A
O18          V23   1.896       .  S
O18          C28   1.264       .  A
O19          V24   1.901       .  S
O19          C28   1.265       .  A
O20          V24   1.896       .  S
O20          C27   1.264       .  A
O21          V24   1.895       .  S
O21          C26   1.264       .  A
O22          V24   1.901       .  S
O22          C25   1.265       .  A
V23          V24   2.087       .  T
C25        C2813   1.482       .  S
C26        C2966   1.477       .  S
C27        C2861   1.474       .  S
C28        C2837   1.478       .  S
O29          V37   1.898       .  S
O29          C39   1.264       .  A
O30          V37   1.895       .  S
O30          C40   1.263       .  A
O31          V37   1.891       .  S
O31          C41   1.263       .  A
O32          V37   1.892       .  S
O32          C42   1.263       .  A
O33          V38   1.904       .  S
O33          C42   1.266       .  A
O34          V38   1.900       .  S
O34          C41   1.265       .  A
O35          V38   1.897       .  S
O35          C40   1.263       .  A
O36          V38   1.899       .  S
O36          C39   1.265       .  A
V37          V38   2.086       .  T
C39        C2741   1.484       .  S
C40        C2798   1.468       .  S
C41        C2942   1.477       .  S
C42        C2774   1.481       .  S
O43          V51   1.897       .  S
O43          C53   1.264       .  A
O44          V51   1.896       .  S
O44          C54   1.264       .  A
O45          V51   1.899       .  S
O45          C55   1.265       .  A
O46          V51   1.898       .  S
O46          C56   1.265       .  A
O47          V52   1.896       .  S
O47          C56   1.264       .  A
O48          V52   1.893       .  S
O48          C55   1.264       .  A
O49          V52   1.897       .  S
O49          C54   1.264       .  A
O50          V52   1.897       .  S
O50          C53   1.264       .  A
V51          V52   2.085       .  T
C53        C2870   1.480       .  S
C54        C2702   1.480       .  S
C55        C2717   1.481       .  S
C56        C2789   1.482       .  S
O57          V65   1.896       .  S
O57          C67   1.264       .  A
O58          V65   1.894       .  S
O58          C68   1.264       .  A
O59          V65   1.898       .  S
O59          C69   1.265       .  A
O60          V65   1.895       .  S
O60          C70   1.264       .  A
O61          V66   1.896       .  S
O61          C70   1.264       .  A
O62          V66   1.895       .  S
O62          C69   1.264       .  A
O63          V66   1.898       .  S
O63          C68   1.264       .  A
O64          V66   1.894       .  S
O64          C67   1.264       .  A
V65          V66   2.086       .  T
C67        C2645   1.474       .  S
C68        C2918   1.481       .  S
C69        C2621   1.478       .  S
C70        C2669   1.474       .  S
O71          V79   1.901       .  S
O71          C81   1.265       .  A
O72          V79   1.901       .  S
O72          C82   1.265       .  A
O73          V79   1.891       .  S
O73          C83   1.262       .  A
O74          V79   1.896       .  S
O74          C84   1.264       .  A
O75          V80   1.898       .  S
O75          C84   1.265       .  A
O76          V80   1.902       .  S
O76          C83   1.266       .  A
O77          V80   1.893       .  S
O77          C82   1.263       .  A
O78          V80   1.893       .  S
O78          C81   1.263       .  A
V79          V80   2.086       .  T
C81        C2597   1.478       .  S
C82        C2558   1.475       .  S
C83        C2678   1.477       .  S
C84        C2573   1.481       .  S
O85          V93   1.896       .  S
O85          C95   1.264       .  A
O86          V93   1.893       .  S
O86          C96   1.263       .  A
O87          V93   1.897       .  S
O87          C97   1.264       .  A
O88          V93   1.897       .  S
O88          C98   1.264       .  A
O89          V94   1.897       .  S
O89          C98   1.264       .  A
O90          V94   1.899       .  S
O90          C97   1.265       .  A
O91          V94   1.898       .  S
O91          C96   1.265       .  A
O92          V94   1.896       .  S
O92          C95   1.264       .  A
V93          V94   2.086       .  T
C95        C2534   1.479       .  S
C96        C2501   1.480       .  S
C97        C2822   1.483       .  S
C98        C2654   1.475       .  S
O99         V107   1.897       .  S
O99         C109   1.265       .  A
O100        V107   1.897       .  S
O100        C110   1.264       .  A
O101        V107   1.897       .  S
O101        C111   1.264       .  A
O102        V107   1.896       .  S
O102        C112   1.265       .  A
O103        V108   1.901       .  S
O103        C112   1.265       .  A
O104        V108   1.898       .  S
O104        C111   1.264       .  A
O105        V108   1.902       .  S
O105        C110   1.265       .  A
O106        V108   1.901       .  S
O106        C109   1.265       .  A
V107        V108   2.083       .  T
C109       C2606   1.480       .  S
C110       C2477   1.478       .  S
C111       C2525   1.475       .  S
C112       C2462   1.480       .  S
O113        V121   1.895       .  S
O113        C123   1.263       .  A
O114        V121   1.900       .  S
O114        C124   1.266       .  A
O115        V121   1.895       .  S
O115        C125   1.264       .  A
O116        V121   1.898       .  S
O116        C126   1.264       .  A
O117        V122   1.900       .  S
O117        C126   1.264       .  A
O118        V122   1.901       .  S
O118        C125   1.266       .  A
O119        V122   1.897       .  S
O119        C124   1.264       .  A
O120        V122   1.896       .  S
O120        C123   1.264       .  A
V121        V122   2.085       .  T
C123       C2429   1.470       .  S
C124       C2390   1.483       .  S
C125       C2405   1.484       .  S
C126       C2765   1.475       .  S
O127        V135   1.890       .  S
O127        C137   1.263       .  A
O128        V135   1.891       .  S
O128        C138   1.263       .  A
O129        V135   1.896       .  S
O129        C139   1.264       .  A
O130        V135   1.899       .  S
O130        C140   1.265       .  A
O131        V136   1.896       .  S
O131        C140   1.264       .  A
O132        V136   1.895       .  S
O132        C139   1.264       .  A
O133        V136   1.900       .  S
O133        C138   1.265       .  A
O134        V136   1.901       .  S
O134        C137   1.265       .  A
V135        V136   2.085       .  T
C137       C2438   1.480       .  S
C138       C2333   1.481       .  S
C139       C2318   1.479       .  S
C140       C2366   1.482       .  S
O141        V149   1.893       .  S
O141        C151   1.263       .  A
O142        V149   1.897       .  S
O142        C152   1.264       .  A
O143        V149   1.899       .  S
O143        C153   1.265       .  A
O144        V149   1.894       .  S
O144        C154   1.264       .  A
O145        V150   1.901       .  S
O145        C154   1.265       .  A
O146        V150   1.896       .  S
O146        C153   1.264       .  A
O147        V150   1.899       .  S
O147        C152   1.264       .  A
O148        V150   1.900       .  S
O148        C151   1.265       .  A
V149        V150   2.087       .  T
C151       C2885   1.477       .  S
C152       C2414   1.471       .  S
C153       C2285   1.477       .  S
C154       C2270   1.483       .  S
O155        V163   1.894       .  S
O155        C165   1.263       .  A
O156        V163   1.895       .  S
O156        C166   1.263       .  A
O157        V163   1.899       .  S
O157        C167   1.265       .  A
O158        V163   1.897       .  S
O158        C168   1.264       .  A
O159        V164   1.899       .  S
O159        C168   1.265       .  A
O160        V164   1.898       .  S
O160        C167   1.264       .  A
O161        V164   1.903       .  S
O161        C166   1.265       .  A
O162        V164   1.903       .  S
O162        C165   1.266       .  A
V163        V164   2.086       .  T
C165       C2246   1.480       .  S
C166       C2357   1.475       .  S
C167       C2213   1.483       .  S
C168       C2294   1.479       .  S
O169        V177   1.902       .  S
O169        C179   1.266       .  A
O170        V177   1.902       .  S
O170        C180   1.266       .  A
O171        V177   1.898       .  S
O171        C181   1.265       .  A
O172        V177   1.897       .  S
O172        C182   1.264       .  A
O173        V178   1.897       .  S
O173        C182   1.264       .  A
O174        V178   1.897       .  S
O174        C181   1.264       .  A
O175        V178   1.893       .  S
O175        C180   1.263       .  A
O176        V178   1.894       .  S
O176        C179   1.264       .  A
V177        V178   2.085       .  T
C179       C2189   1.485       .  S
C180       C2141   1.484       .  S
C181       C2726   1.483       .  S
C182       C2165   1.479       .  S
O183        V191   1.897       .  S
O183        C193   1.263       .  A
O184        V191   1.896       .  S
O184        C194   1.264       .  A
O185        V191   1.892       .  S
O185        C195   1.263       .  A
O186        V191   1.894       .  S
O186        C196   1.264       .  A
O187        V192   1.902       .  S
O187        C196   1.265       .  A
O188        V192   1.904       .  S
O188        C195   1.266       .  A
O189        V192   1.900       .  S
O189        C194   1.265       .  A
O190        V192   1.900       .  S
O190        C193   1.264       .  A
V191        V192   2.084       .  T
C193       C2198   1.471       .  S
C194       C2093   1.479       .  S
C195       C2126   1.484       .  S
C196       C2069   1.481       .  S
O197        V205   1.895       .  S
O197        C207   1.264       .  A
O198        V205   1.899       .  S
O198        C208   1.265       .  A
O199        V205   1.898       .  S
O199        C209   1.265       .  A
O200        V205   1.900       .  S
O200        C210   1.265       .  A
O201        V206   1.896       .  S
O201        C210   1.264       .  A
O202        V206   1.899       .  S
O202        C209   1.264       .  A
O203        V206   1.897       .  S
O203        C208   1.264       .  A
O204        V206   1.896       .  S
O204        C207   1.264       .  A
V205        V206   2.084       .  T
C207       C2045   1.473       .  S
C208       C2030   1.483       .  S
C209       C2750   1.481       .  S
C210       C2174   1.477       .  S
O211        V219   1.903       .  S
O211        C221   1.264       .  A
O212        V219   1.900       .  S
O212        C222   1.266       .  A
O213        V219   1.894       .  S
O213        C223   1.264       .  A
O214        V219   1.897       .  S
O214        C224   1.264       .  A
O215        V220   1.890       .  S
O215        C224   1.263       .  A
O216        V220   1.895       .  S
O216        C223   1.264       .  A
O217        V220   1.895       .  S
O217        C222   1.263       .  A
O218        V220   1.892       .  S
O218        C221   1.262       .  A
V219        V220   2.086       .  T
C221       C2117   1.466       .  S
C222       C1997   1.483       .  S
C223       C2054   1.478       .  S
C224       C1973   1.475       .  S
O225        V233   1.895       .  S
O225        C235   1.264       .  A
O226        V233   1.891       .  S
O226        C236   1.263       .  A
O227        V233   1.899       .  S
O227        C237   1.265       .  A
O228        V233   1.900       .  S
O228        C238   1.265       .  A
O229        V234   1.895       .  S
O229        C238   1.264       .  A
O230        V234   1.897       .  S
O230        C237   1.263       .  A
O231        V234   1.899       .  S
O231        C236   1.265       .  A
O232        V234   1.901       .  S
O232        C235   1.265       .  A
V233        V234   2.086       .  T
C235       C2846   1.481       .  S
C236       C1925   1.474       .  S
C237       C1949   1.477       .  S
C238       C1910   1.483       .  S
O239        V247   1.891       .  S
O239        C249   1.263       .  A
O240        V247   1.896       .  S
O240        C250   1.264       .  A
O241        V247   1.902       .  S
O241        C251   1.265       .  A
O242        V247   1.898       .  S
O242        C252   1.265       .  A
O243        V248   1.899       .  S
O243        C252   1.264       .  A
O244        V248   1.896       .  S
O244        C251   1.264       .  A
O245        V248   1.899       .  S
O245        C250   1.265       .  A
O246        V248   1.901       .  S
O246        C249   1.265       .  A
V247        V248   2.086       .  T
C249       C1838   1.478       .  S
C250       C1877   1.483       .  S
C251       C1862   1.482       .  S
C252       C1958   1.480       .  S
O253        V261   1.896       .  S
O253        C263   1.263       .  A
O254        V261   1.897       .  S
O254        C264   1.264       .  A
O255        V261   1.895       .  S
O255        C265   1.263       .  A
O256        V261   1.900       .  S
O256        C266   1.266       .  A
O257        V262   1.897       .  S
O257        C266   1.264       .  A
O258        V262   1.900       .  S
O258        C265   1.265       .  A
O259        V262   1.899       .  S
O259        C264   1.265       .  A
O260        V262   1.897       .  S
O260        C263   1.263       .  A
V261        V262   2.087       .  T
C263       C1886   1.466       .  S
C264       C1781   1.480       .  S
C265       C1766   1.481       .  S
C266       C1805   1.482       .  S
O267        V275   1.894       .  S
O267        C277   1.263       .  A
O268        V275   1.893       .  S
O268        C278   1.264       .  A
O269        V275   1.892       .  S
O269        C279   1.263       .  A
O270        V275   1.891       .  S
O270        C280   1.264       .  A
O271        V276   1.901       .  S
O271        C280   1.265       .  A
O272        V276   1.898       .  S
O272        C279   1.264       .  A
O273        V276   1.906       .  S
O273        C278   1.266       .  A
O274        V276   1.905       .  S
O274        C277   1.266       .  A
V275        V276   2.085       .  T
C277       C1814   1.478       .  S
C278       C1733   1.485       .  S
C279       C1934   1.475       .  S
C280       C2693   1.481       .  S
O281        V289   1.900       .  S
O281        C291   1.265       .  A
O282        V289   1.897       .  S
O282        C292   1.264       .  A
O283        V289   1.891       .  S
O283        C293   1.262       .  A
O284        V289   1.893       .  S
O284        C294   1.263       .  A
O285        V290   1.906       .  S
O285        C294   1.266       .  A
O286        V290   1.904       .  S
O286        C293   1.267       .  A
O287        V290   1.899       .  S
O287        C292   1.265       .  A
O288        V290   1.896       .  S
O288        C291   1.264       .  A
V289        V290   2.084       .  T
C291       C2486   1.485       .  S
C292       C1709   1.481       .  S
C293       C1829   1.482       .  S
C294       C1685   1.480       .  S
O295        V303   1.900       .  S
O295        C305   1.265       .  A
O296        V303   1.894       .  S
O296        C306   1.263       .  A
O297        V303   1.895       .  S
O297        C307   1.264       .  A
O298        V303   1.898       .  S
O298        C308   1.264       .  A
O299        V304   1.896       .  S
O299        C308   1.263       .  A
O300        V304   1.896       .  S
O300        C307   1.264       .  A
O301        V304   1.902       .  S
O301        C306   1.265       .  A
O302        V304   1.899       .  S
O302        C305   1.265       .  A
V303        V304   2.085       .  T
C305       C2237   1.485       .  S
C306       C1661   1.479       .  S
C307       C2549   1.480       .  S
C308       C1718   1.473       .  S
O309        V317   1.899       .  S
O309        C319   1.265       .  A
O310        V317   1.897       .  S
O310        C320   1.264       .  A
O311        V317   1.894       .  S
O311        C321   1.263       .  A
O312        V317   1.892       .  S
O312        C322   1.263       .  A
O313        V318   1.900       .  S
O313        C322   1.265       .  A
O314        V318   1.901       .  S
O314        C321   1.266       .  A
O315        V318   1.893       .  S
O315        C320   1.263       .  A
O316        V318   1.896       .  S
O316        C319   1.264       .  A
V317        V318   2.085       .  T
C319       C1670   1.479       .  S
C320       C2309   1.477       .  S
C321       C2006   1.481       .  S
C322       C1637   1.476       .  S
O323        V331   1.892       .  S
O323        C333   1.263       .  A
O324        V331   1.897       .  S
O324        C334   1.264       .  A
O325        V331   1.894       .  S
O325        C335   1.264       .  A
O326        V331   1.898       .  S
O326        C336   1.264       .  A
O327        V332   1.895       .  S
O327        C336   1.264       .  A
O328        V332   1.900       .  S
O328        C335   1.264       .  A
O329        V332   1.903       .  S
O329        C334   1.266       .  A
O330        V332   1.903       .  S
O330        C333   1.265       .  A
V331        V332   2.086       .  T
C333       C1790   1.475       .  S
C334       C1694   1.482       .  S
C335       C1646   1.477       .  S
C336       C2078   1.482       .  S
O337        V345   1.896       .  S
O337        C347   1.263       .  A
O338        V345   1.894       .  S
O338        C348   1.264       .  A
O339        V345   1.906       .  S
O339        C349   1.267       .  A
O340        V345   1.902       .  S
O340        C350   1.266       .  A
O341        V346   1.892       .  S
O341        C350   1.263       .  A
O342        V346   1.892       .  S
O342        C349   1.262       .  A
O343        V346   1.899       .  S
O343        C348   1.264       .  A
O344        V346   1.897       .  S
O344        C347   1.265       .  A
V345        V346   2.086       .  T
C347       C2261   1.477       .  S
C348       C1613   1.476       .  S
C349       C1589   1.483       .  S
C350       C1574   1.483       .  S
O351        V359   1.896       .  S
O351        C361   1.263       .  A
O352        V359   1.894       .  S
O352        C362   1.263       .  A
O353        V359   1.900       .  S
O353        C363   1.265       .  A
O354        V359   1.897       .  S
O354        C364   1.265       .  A
O355        V360   1.896       .  S
O355        C364   1.263       .  A
O356        V360   1.896       .  S
O356        C363   1.265       .  A
O357        V360   1.901       .  S
O357        C362   1.265       .  A
O358        V360   1.903       .  S
O358        C361   1.267       .  A
V359        V360   2.084       .  T
C361       C1550   1.483       .  S
C362       C1517   1.481       .  S
C363       C2222   1.484       .  S
C364       C1622   1.475       .  S
O365        V373   1.900       .  S
O365        C375   1.265       .  A
O366        V373   1.904       .  S
O366        C376   1.265       .  A
O367        V373   1.906       .  S
O367        C377   1.266       .  A
O368        V373   1.900       .  S
O368        C378   1.265       .  A
O369        V374   1.894       .  S
O369        C378   1.264       .  A
O370        V374   1.893       .  S
O370        C377   1.264       .  A
O371        V374   1.894       .  S
O371        C376   1.263       .  A
O372        V374   1.894       .  S
O372        C375   1.264       .  A
V373        V374   2.085       .  T
C375       C1478   1.481       .  S
C376       C1541   1.476       .  S
C377       C1853   1.485       .  S
C378       C1493   1.481       .  S
O379        V387   1.902       .  S
O379        C389   1.264       .  A
O380        V387   1.896       .  S
O380        C390   1.264       .  A
O381        V387   1.903       .  S
O381        C391   1.266       .  A
O382        V387   1.900       .  S
O382        C392   1.265       .  A
O383        V388   1.894       .  S
O383        C392   1.264       .  A
O384        V388   1.892       .  S
O384        C391   1.263       .  A
O385        V388   1.903       .  S
O385        C390   1.266       .  A
O386        V388   1.898       .  S
O386        C389   1.264       .  A
V387        V388   2.086       .  T
C389       C1598   1.475       .  S
C390       C1445   1.486       .  S
C391       C1502   1.476       .  S
C392       C1901   1.480       .  S
O393        V401   1.902       .  S
O393        C403   1.265       .  A
O394        V401   1.898       .  S
O394        C404   1.264       .  A
O395        V401   1.901       .  S
O395        C405   1.265       .  A
O396        V401   1.896       .  S
O396        C406   1.264       .  A
O397        V402   1.894       .  S
O397        C406   1.264       .  A
O398        V402   1.891       .  S
O398        C405   1.263       .  A
O399        V402   1.900       .  S
O399        C404   1.264       .  A
O400        V402   1.895       .  S
O400        C403   1.264       .  A
V401        V402   2.086       .  T
C403       C2021   1.483       .  S
C404       C1421   1.477       .  S
C405       C1397   1.473       .  S
C406       C1373   1.477       .  S
O407        V415   1.894       .  S
O407        C417   1.264       .  A
O408        V415   1.893       .  S
O408        C418   1.263       .  A
O409        V415   1.900       .  S
O409        C419   1.265       .  A
O410        V415   1.894       .  S
O410        C420   1.264       .  A
O411        V416   1.895       .  S
O411        C420   1.263       .  A
O412        V416   1.896       .  S
O412        C419   1.264       .  A
O413        V416   1.899       .  S
O413        C418   1.265       .  A
O414        V416   1.900       .  S
O414        C417   1.264       .  A
V415        V416   2.085       .  T
C417       C1349   1.481       .  S
C418       C1325   1.479       .  S
C419       C1430   1.482       .  S
C420       C1982   1.479       .  S
O421        V429   1.892       .  S
O421        C431   1.263       .  A
O422        V429   1.894       .  S
O422        C432   1.263       .  A
O423        V429   1.901       .  S
O423        C433   1.266       .  A
O424        V429   1.904       .  S
O424        C434   1.265       .  A
O425        V430   1.892       .  S
O425        C434   1.263       .  A
O426        V430   1.892       .  S
O426        C433   1.263       .  A
O427        V430   1.897       .  S
O427        C432   1.265       .  A
O428        V430   1.899       .  S
O428        C431   1.265       .  A
V429        V430   2.085       .  T
C431       C1406   1.480       .  S
C432       C1277   1.480       .  S
C433       C2630   1.482       .  S
C434       C1310   1.477       .  S
O435        V443   1.904       .  S
O435        C445   1.266       .  A
O436        V443   1.902       .  S
O436        C446   1.265       .  A
O437        V443   1.895       .  S
O437        C447   1.263       .  A
O438        V443   1.899       .  S
O438        C448   1.264       .  A
O439        V444   1.896       .  S
O439        C448   1.265       .  A
O440        V444   1.901       .  S
O440        C447   1.265       .  A
O441        V444   1.893       .  S
O441        C446   1.262       .  A
O442        V444   1.892       .  S
O442        C445   1.263       .  A
V443        V444   2.087       .  T
C445       C1262   1.481       .  S
C446       C1358   1.470       .  S
C447       C1301   1.478       .  S
C448       C2582   1.483       .  S
O449        V457   1.901       .  S
O449        C459   1.265       .  A
O450        V457   1.899       .  S
O450        C460   1.265       .  A
O451        V457   1.899       .  S
O451        C461   1.263       .  A
O452        V457   1.898       .  S
O452        C462   1.265       .  A
O453        V458   1.899       .  S
O453        C462   1.265       .  A
O454        V458   1.896       .  S
O454        C461   1.263       .  A
O455        V458   1.899       .  S
O455        C460   1.264       .  A
O456        V458   1.892       .  S
O456        C459   1.264       .  A
V457        V458   2.084       .  T
C459       C1181   1.480       .  S
C460       C1205   1.479       .  S
C461       C1229   1.465       .  S
C462       C1742   1.484       .  S
O463        V471   1.900       .  S
O463        C473   1.265       .  A
O464        V471   1.902       .  S
O464        C474   1.266       .  A
O465        V471   1.898       .  S
O465        C475   1.264       .  A
O466        V471   1.900       .  S
O466        C476   1.265       .  A
O467        V472   1.900       .  S
O467        C476   1.265       .  A
O468        V472   1.897       .  S
O468        C475   1.264       .  A
O469        V472   1.890       .  S
O469        C474   1.263       .  A
O470        V472   1.894       .  S
O470        C473   1.264       .  A
V471        V472   2.085       .  T
C473       C1757   1.482       .  S
C474       C1238   1.481       .  S
C475       C1133   1.474       .  S
C476       C1157   1.484       .  S
O477        V485   1.897       .  S
O477        C487   1.264       .  A
O478        V485   1.895       .  S
O478        C488   1.263       .  A
O479        V485   1.897       .  S
O479        C489   1.265       .  A
O480        V485   1.903       .  S
O480        C490   1.266       .  A
O481        V486   1.895       .  S
O481        C490   1.263       .  A
O482        V486   1.896       .  S
O482        C489   1.263       .  A
O483        V486   1.904       .  S
O483        C488   1.266       .  A
O484        V486   1.902       .  S
O484        C487   1.265       .  A
V485        V486   2.086       .  T
C487       C1166   1.478       .  S
C488       C1094   1.486       .  S
C489       C2342   1.480       .  S
C490       C1109   1.479       .  S
O491        V499   1.894       .  S
O491        C501   1.263       .  A
O492        V499   1.895       .  S
O492        C502   1.264       .  A
O493        V499   1.900       .  S
O493        C503   1.265       .  A
O494        V499   1.903       .  S
O494        C504   1.265       .  A
O495        V500   1.897       .  S
O495        C504   1.264       .  A
O496        V500   1.896       .  S
O496        C503   1.264       .  A
O497        V500   1.903       .  S
O497        C502   1.265       .  A
O498        V500   1.904       .  S
O498        C501   1.266       .  A
V499        V500   2.086       .  T
C501       C2381   1.483       .  S
C502       C1118   1.479       .  S
C503       C1214   1.482       .  S
C504       C1061   1.477       .  S
O505        V513   1.893       .  S
O505        C515   1.264       .  A
O506        V513   1.892       .  S
O506        C516   1.262       .  A
O507        V513   1.902       .  S
O507        C517   1.266       .  A
O508        V513   1.898       .  S
O508        C518   1.265       .  A
O509        V514   1.895       .  S
O509        C518   1.263       .  A
O510        V514   1.892       .  S
O510        C517   1.263       .  A
O511        V514   1.900       .  S
O511        C516   1.264       .  A
O512        V514   1.897       .  S
O512        C515   1.264       .  A
V513        V514   2.085       .  T
C515       C2510   1.477       .  S
C516       C1037   1.468       .  S
C517       C1013   1.480       .  S
C518        C989   1.481       .  S
O519        V527   1.900       .  S
O519        C529   1.265       .  A
O520        V527   1.900       .  S
O520        C530   1.265       .  A
O521        V527   1.897       .  S
O521        C531   1.265       .  A
O522        V527   1.900       .  S
O522        C532   1.265       .  A
O523        V528   1.897       .  S
O523        C532   1.265       .  A
O524        V528   1.896       .  S
O524        C531   1.264       .  A
O525        V528   1.898       .  S
O525        C530   1.264       .  A
O526        V528   1.895       .  S
O526        C529   1.264       .  A
V527        V528   2.085       .  T
C529        C941   1.482       .  S
C530        C974   1.481       .  S
C531       C1046   1.482       .  S
C532       C2453   1.485       .  S
O533        V541   1.897       .  S
O533        C543   1.264       .  A
O534        V541   1.896       .  S
O534        C544   1.264       .  A
O535        V541   1.895       .  S
O535        C545   1.264       .  A
O536        V541   1.895       .  S
O536        C546   1.263       .  A
O537        V542   1.900       .  S
O537        C546   1.266       .  A
O538        V542   1.894       .  S
O538        C545   1.263       .  A
O539        V542   1.895       .  S
O539        C544   1.264       .  A
O540        V542   1.900       .  S
O540        C543   1.264       .  A
V541        V542   2.086       .  T
C543        C965   1.478       .  S
C544        C893   1.475       .  S
C545        C917   1.475       .  S
C546       C2102   1.482       .  S
O547        V555   1.897       .  S
O547        C557   1.265       .  A
O548        V555   1.894       .  S
O548        C558   1.263       .  A
O549        V555   1.893       .  S
O549        C559   1.263       .  A
O550        V555   1.893       .  S
O550        C560   1.263       .  A
O551        V556   1.896       .  S
O551        C560   1.264       .  A
O552        V556   1.899       .  S
O552        C559   1.264       .  A
O553        V556   1.896       .  S
O553        C558   1.264       .  A
O554        V556   1.896       .  S
O554        C557   1.264       .  A
V555        V556   2.086       .  T
C557       C2150   1.482       .  S
C558        C926   1.473       .  S
C559       C1022   1.474       .  S
C560        C869   1.480       .  S
O561        V569   1.892       .  S
O561        C571   1.263       .  A
O562        V569   1.896       .  S
O562        C572   1.264       .  A
O563        V569   1.897       .  S
O563        C573   1.265       .  A
O564        V569   1.897       .  S
O564        C574   1.265       .  A
O565        V570   1.894       .  S
O565        C574   1.263       .  A
O566        V570   1.900       .  S
O566        C573   1.264       .  A
O567        V570   1.898       .  S
O567        C572   1.264       .  A
O568        V570   1.898       .  S
O568        C571   1.264       .  A
V569        V570   2.086       .  T
C571        C845   1.473       .  S
C572       C1565   1.481       .  S
C573        C821   1.479       .  S
C574       C1286   1.479       .  S
O575        V583   1.900       .  S
O575        C585   1.266       .  A
O576        V583   1.904       .  S
O576        C586   1.266       .  A
O577        V583   1.892       .  S
O577        C587   1.262       .  A
O578        V583   1.891       .  S
O578        C588   1.262       .  A
O579        V584   1.901       .  S
O579        C588   1.266       .  A
O580        V584   1.906       .  S
O580        C587   1.266       .  A
O581        V584   1.891       .  S
O581        C586   1.262       .  A
O582        V584   1.893       .  S
O582        C585   1.263       .  A
V583        V584   2.086       .  T
C585        C998   1.482       .  S
C586        C797   1.478       .  S
C587       C1454   1.477       .  S
C588        C854   1.476       .  S
O589        V597   1.896       .  S
O589        C599   1.264       .  A
O590        V597   1.897       .  S
O590        C600   1.264       .  A
O591        V597   1.892       .  S
O591        C601   1.264       .  A
O592        V597   1.889       .  S
O592        C602   1.262       .  A
O593        V598   1.899       .  S
O593        C602   1.265       .  A
O594        V598   1.900       .  S
O594        C601   1.265       .  A
O595        V598   1.894       .  S
O595        C600   1.264       .  A
O596        V598   1.897       .  S
O596        C599   1.263       .  A
V597        V598   2.086       .  T
C599        C806   1.474       .  S
C600        C878   1.478       .  S
C601       C1190   1.481       .  S
C602        C773   1.473       .  S
O603        V611   1.894       .  S
O603        C613   1.264       .  A
O604        V611   1.894       .  S
O604        C614   1.263       .  A
O605        V611   1.892       .  S
O605        C615   1.263       .  A
O606        V611   1.898       .  S
O606        C616   1.265       .  A
O607        V612   1.898       .  S
O607        C616   1.264       .  A
O608        V612   1.897       .  S
O608        C615   1.264       .  A
O609        V612   1.902       .  S
O609        C614   1.265       .  A
O610        V612   1.899       .  S
O610        C613   1.264       .  A
V611        V612   2.086       .  T
C613       C1382   1.480       .  S
C614        C830   1.478       .  S
C615        C782   1.471       .  S
C616       C1070   1.484       .  S
O617        V625   1.889       .  S
O617        C627   1.262       .  A
O618        V625   1.892       .  S
O618        C628   1.263       .  A
O619        V625   1.895       .  S
O619        C629   1.264       .  A
O620        V625   1.896       .  S
O620        C630   1.264       .  A
O621        V626   1.901       .  S
O621        C630   1.265       .  A
O622        V626   1.898       .  S
O622        C629   1.264       .  A
O623        V626   1.902       .  S
O623        C628   1.265       .  A
O624        V626   1.904       .  S
O624        C627   1.266       .  A
V625        V626   2.085       .  T
C627        C950   1.474       .  S
C628        C758   1.474       .  S
C629       C1469   1.478       .  S
C630        C725   1.478       .  S
O631        V639   1.900       .  S
O631        C641   1.265       .  A
O632        V639   1.903       .  S
O632        C642   1.266       .  A
O633        V639   1.901       .  S
O633        C643   1.265       .  A
O634        V639   1.901       .  S
O634        C644   1.265       .  A
O635        V640   1.892       .  S
O635        C644   1.263       .  A
O636        V640   1.892       .  S
O636        C643   1.263       .  A
O637        V640   1.888       .  S
O637        C642   1.262       .  A
O638        V640   1.892       .  S
O638        C641   1.263       .  A
V639        V640   2.085       .  T
C641        C749   1.477       .  S
C642        C902   1.481       .  S
C643       C1142   1.482       .  S
C644        C701   1.473       .  S
O645        V653   1.896       .  S
O645        C655   1.263       .  A
O646        V653   1.894       .  S
O646        C656   1.264       .  A
O647        V653   1.898       .  S
O647        C657   1.264       .  A
O648        V653   1.899       .  S
O648        C658   1.265       .  A
O649        V654   1.897       .  S
O649        C658   1.264       .  A
O650        V654   1.896       .  S
O650        C657   1.264       .  A
O651        V654   1.900       .  S
O651        C656   1.264       .  A
O652        V654   1.895       .  S
O652        C655   1.264       .  A
V653        V654   2.086       .  T
C655       C1334   1.475       .  S
C656        C686   1.476       .  S
C657        C710   1.479       .  S
C658       C1085   1.481       .  S
O659        V667   1.899       .  S
O659        C669   1.265       .  A
O660        V667   1.900       .  S
O660        C670   1.265       .  A
O661        V667   1.897       .  S
O661        C671   1.264       .  A
O662        V667   1.900       .  S
O662        C672   1.265       .  A
O663        V668   1.898       .  S
O663        C672   1.264       .  A
O664        V668   1.898       .  S
O664        C671   1.265       .  A
O665        V668   1.895       .  S
O665        C670   1.264       .  A
O666        V668   1.896       .  S
O666        C669   1.264       .  A
V667        V668   2.085       .  T
C669        C734   1.478       .  S
C670       C1526   1.483       .  S
C671        C677   1.480       .  S
C672       C1253   1.485       .  S
C673        C674   1.403       .  A
C673        C678   1.399       .  A
C673        H683   1.084       .  S
C674        C679   1.483       .  S
C674        C675   1.409       .  A
C675        C676   1.400       .  A
C675        O680   1.373       .  S
C676        C677   1.404       .  A
C676        H681   1.084       .  S
C677        C678   1.411       .  A
C678        O682   1.372       .  S
C679        C684   1.409       .  A
C679        C688   1.405       .  A
O680        H696   0.992       .  S
O682        H693   0.992       .  S
C684        C685   1.397       .  A
C684        O689   1.371       .  S
C685        C686   1.404       .  A
C685        H690   1.084       .  S
C686        C687   1.410       .  A
C687        C688   1.400       .  A
C687        O691   1.372       .  S
C688        H692   1.084       .  S
O689        H694   0.991       .  S
O691        H695   0.992       .  S
C697        C698   1.403       .  A
C697        C702   1.398       .  A
C697        H707   1.084       .  S
C698        C703   1.477       .  S
C698        C699   1.406       .  A
C699        C700   1.398       .  A
C699        O704   1.372       .  S
C700        C701   1.405       .  A
C700        H705   1.084       .  S
C701        C702   1.408       .  A
C702        O706   1.372       .  S
C703        C708   1.405       .  A
C703        C712   1.402       .  A
O704        H720   0.991       .  S
O706        H717   0.992       .  S
C708        C709   1.398       .  A
C708        O713   1.372       .  S
C709        C710   1.405       .  A
C709        H714   1.083       .  S
C710        C711   1.412       .  A
C711        C712   1.399       .  A
C711        O715   1.372       .  S
C712        H716   1.084       .  S
O713        H718   0.992       .  S
O715        H719   0.992       .  S
C721        C722   1.404       .  A
C721        C726   1.400       .  A
C721        H731   1.084       .  S
C722        C727   1.481       .  S
C722        C723   1.408       .  A
C723        C724   1.397       .  A
C723        O728   1.372       .  S
C724        C725   1.404       .  A
C724        H729   1.084       .  S
C725        C726   1.411       .  A
C726        O730   1.372       .  S
C727        C732   1.408       .  A
C727        C736   1.403       .  A
O728        H744   0.991       .  S
O730        H741   0.992       .  S
C732        C733   1.399       .  A
C732        O737   1.372       .  S
C733        C734   1.405       .  A
C733        H738   1.084       .  S
C734        C735   1.410       .  A
C735        C736   1.398       .  A
C735        O739   1.372       .  S
C736        H740   1.084       .  S
O737        H742   0.991       .  S
O739        H743   0.992       .  S
C745        C746   1.401       .  A
C745        C750   1.397       .  A
C745        H755   1.084       .  S
C746        C751   1.477       .  S
C746        C747   1.408       .  A
C747        C748   1.399       .  A
C747        O752   1.372       .  S
C748        C749   1.405       .  A
C748        H753   1.083       .  S
C749        C750   1.412       .  A
C750        O754   1.372       .  S
C751        C756   1.408       .  A
C751        C760   1.401       .  A
O752        H768   0.991       .  S
O754        H765   0.992       .  S
C756        C757   1.401       .  A
C756        O761   1.372       .  S
C757        C758   1.404       .  A
C757        H762   1.084       .  S
C758        C759   1.409       .  A
C759        C760   1.397       .  A
C759        O763   1.372       .  S
C760        H764   1.084       .  S
O761        H766   0.992       .  S
O763        H767   0.991       .  S
C769        C770   1.401       .  A
C769        C774   1.396       .  A
C769        H779   1.084       .  S
C770        C775   1.475       .  S
C770        C771   1.408       .  A
C771        C772   1.397       .  A
C771        O776   1.372       .  S
C772        C773   1.403       .  A
C772        H777   1.084       .  S
C773        C774   1.411       .  A
C774        O778   1.372       .  S
C775        C780   1.407       .  A
C775        C784   1.402       .  A
O776        H792   0.991       .  S
O778        H789   0.992       .  S
C780        C781   1.399       .  A
C780        O785   1.372       .  S
C781        C782   1.404       .  A
C781        H786   1.084       .  S
C782        C783   1.408       .  A
C783        C784   1.396       .  A
C783        O787   1.372       .  S
C784        H788   1.084       .  S
O785        H790   0.992       .  S
O787        H791   0.991       .  S
C793        C794   1.402       .  A
C793        C798   1.398       .  A
C793        H803   1.084       .  S
C794        C799   1.480       .  S
C794        C795   1.409       .  A
C795        C796   1.400       .  A
C795        O800   1.373       .  S
C796        C797   1.403       .  A
C796        H801   1.083       .  S
C797        C798   1.412       .  A
C798        O802   1.372       .  S
C799        C804   1.408       .  A
C799        C808   1.404       .  A
O800        H816   0.992       .  S
O802        H813   0.992       .  S
C804        C805   1.397       .  A
C804        O809   1.371       .  S
C805        C806   1.404       .  A
C805        H810   1.084       .  S
C806        C807   1.410       .  A
C807        C808   1.399       .  A
C807        O811   1.372       .  S
C808        H812   1.084       .  S
O809        H814   0.991       .  S
O811        H815   0.992       .  S
C817        C818   1.404       .  A
C817        C822   1.400       .  A
C817        H827   1.084       .  S
C818        C823   1.482       .  S
C818        C819   1.407       .  A
C819        C820   1.400       .  A
C819        O824   1.373       .  S
C820        C821   1.405       .  A
C820        H825   1.084       .  S
C821        C822   1.410       .  A
C822        O826   1.371       .  S
C823        C828   1.409       .  A
C823        C832   1.403       .  A
O824        H840   0.993       .  S
O826        H837   0.992       .  S
C828        C829   1.399       .  A
C828        O833   1.371       .  S
C829        C830   1.403       .  A
C829        H834   1.084       .  S
C830        C831   1.411       .  A
C831        C832   1.400       .  A
C831        O835   1.372       .  S
C832        H836   1.084       .  S
O833        H838   0.991       .  S
O835        H839   0.991       .  S
C841        C842   1.404       .  A
C841        C846   1.398       .  A
C841        H851   1.083       .  S
C842        C847   1.481       .  S
C842        C843   1.409       .  A
C843        C844   1.397       .  A
C843        O848   1.372       .  S
C844        C845   1.404       .  A
C844        H849   1.084       .  S
C845        C846   1.408       .  A
C846        O850   1.372       .  S
C847        C852   1.409       .  A
C847        C856   1.403       .  A
O848        H864   0.991       .  S
O850        H861   0.991       .  S
C852        C853   1.399       .  A
C852        O857   1.372       .  S
C853        C854   1.403       .  A
C853        H858   1.084       .  S
C854        C855   1.411       .  A
C855        C856   1.397       .  A
C855        O859   1.372       .  S
C856        H860   1.084       .  S
O857        H862   0.992       .  S
O859        H863   0.992       .  S
C865        C866   1.398       .  A
C865        C870   1.397       .  A
C865        H875   1.084       .  S
C866        C871   1.469       .  S
C866        C867   1.403       .  A
C867        C868   1.398       .  A
C867        O872   1.372       .  S
C868        C869   1.407       .  A
C868        H873   1.083       .  S
C869        C870   1.414       .  A
C870        O874   1.371       .  S
C871        C876   1.403       .  A
C871        C880   1.399       .  A
O872        H888   0.992       .  S
O874        H885   0.992       .  S
C876        C877   1.397       .  A
C876        O881   1.372       .  S
C877        C878   1.407       .  A
C877        H882   1.083       .  S
C878        C879   1.413       .  A
C879        C880   1.398       .  A
C879        O883   1.371       .  S
C880        H884   1.084       .  S
O881        H886   0.991       .  S
O883        H887   0.991       .  S
C889        C890   1.402       .  A
C889        C894   1.398       .  A
C889        H899   1.084       .  S
C890        C895   1.475       .  S
C890        C891   1.405       .  A
C891        C892   1.398       .  A
C891        O896   1.372       .  S
C892        C893   1.405       .  A
C892        H897   1.084       .  S
C893        C894   1.409       .  A
C894        O898   1.372       .  S
C895        C900   1.407       .  A
C895        C904   1.399       .  A
O896        H912   0.991       .  S
O898        H909   0.992       .  S
C900        C901   1.400       .  A
C900        O905   1.371       .  S
C901        C902   1.407       .  A
C901        H906   1.083       .  S
C902        C903   1.414       .  A
C903        C904   1.395       .  A
C903        O907   1.372       .  S
C904        H908   1.084       .  S
O905        H910   0.991       .  S
O907        H911   0.992       .  S
C913        C914   1.402       .  A
C913        C918   1.398       .  A
C913        H923   1.084       .  S
C914        C919   1.477   1_556  S
C914        C915   1.407       .  A
C915        C916   1.398       .  A
C915        O920   1.373       .  S
C916        C917   1.404       .  A
C916        H921   1.084       .  S
C917        C918   1.411       .  A
C918        O922   1.372       .  S
C919        C924   1.408       .  A
C919        C928   1.403       .  A
O920        H936   0.993       .  S
O922        H933   0.991       .  S
C924        C925   1.397       .  A
C924        O929   1.372       .  S
C925        C926   1.404       .  A
C925        H930   1.084       .  S
C926        C927   1.409       .  A
C927        C928   1.397       .  A
C927        O931   1.372       .  S
C928        H932   1.084       .  S
O929        H934   0.991       .  S
O931        H935   0.991       .  S
C937        C938   1.402       .  A
C937        C942   1.400       .  A
C937        H947   1.084       .  S
C938        C943   1.478       .  S
C938        C939   1.405       .  A
C939        C940   1.398       .  A
C939        O944   1.373       .  S
C940        C941   1.406       .  A
C940        H945   1.083       .  S
C941        C942   1.413       .  A
C942        O946   1.371       .  S
C943        C948   1.409       .  A
C943        C952   1.401       .  A
O944        H960   0.992       .  S
O946        H957   0.992       .  S
C948        C949   1.400       .  A
C948        O953   1.371       .  S
C949        C950   1.403       .  A
C949        H954   1.084       .  S
C950        C951   1.410       .  A
C951        C952   1.397       .  A
C951        O955   1.372       .  S
C952        H956   1.084       .  S
O953        H958   0.991       .  S
O955        H959   0.992       .  S
C961        C962   1.403       .  A
C961        C966   1.398       .  A
C961        H971   1.084       .  S
C962        C967   1.482   1_655  S
C962        C963   1.409       .  A
C963        C964   1.403       .  A
C963        O968   1.373       .  S
C964        C965   1.405       .  A
C964        H969   1.084       .  S
C965        C966   1.409       .  A
C966        O970   1.372       .  S
C967        C972   1.408       .  A
C967        C976   1.403       .  A
O968        H984   0.993       .  S
O970        H981   0.991       .  S
C972        C973   1.400       .  A
C972        O977   1.371       .  S
C973        C974   1.406       .  A
C973        H978   1.083       .  S
C974        C975   1.411       .  A
C975        C976   1.399       .  A
C975        O979   1.372       .  S
C976        H980   1.084       .  S
O977        H982   0.991       .  S
O979        H983   0.992       .  S
C985        C986   1.399       .  A
C985        C990   1.400       .  A
C985        H995   1.084       .  S
C986        C991   1.471       .  S
C986        C987   1.404       .  A
C987        C988   1.397       .  A
C987        O992   1.372       .  S
C988        C989   1.406       .  A
C988        H993   1.083       .  S
C989        C990   1.414       .  A
C990        O994   1.372       .  S
C991        C996   1.404       .  A
C991       C1000   1.399       .  A
O992       H1008   0.991       .  S
O994       H1005   0.992       .  S
C996        C997   1.398       .  A
C996       O1001   1.372       .  S
C997        C998   1.407       .  A
C997       H1002   1.083       .  S
C998        C999   1.415       .  A
C999       C1000   1.398       .  A
C999       O1003   1.372       .  S
C1000      H1004   1.084       .  S
O1001      H1006   0.992       .  S
O1003      H1007   0.992       .  S
C1009      C1010   1.403       .  A
C1009      C1014   1.397       .  A
C1009      H1019   1.083       .  S
C1010      C1015   1.485   1_455  S
C1010      C1011   1.410       .  A
C1011      C1012   1.400       .  A
C1011      O1016   1.372       .  S
C1012      C1013   1.405       .  A
C1012      H1017   1.083       .  S
C1013      C1014   1.412       .  A
C1014      O1018   1.372       .  S
C1015      C1020   1.410       .  A
C1015      C1024   1.405       .  A
O1016      H1032   0.991       .  S
O1018      H1029   0.992       .  S
C1020      C1021   1.398       .  A
C1020      O1025   1.373       .  S
C1021      C1022   1.402       .  A
C1021      H1026   1.084       .  S
C1022      C1023   1.409       .  A
C1023      C1024   1.399       .  A
C1023      O1027   1.372       .  S
C1024      H1028   1.083       .  S
O1025      H1030   0.992       .  S
O1027      H1031   0.992       .  S
C1033      C1034   1.403       .  A
C1033      C1038   1.397       .  A
C1033      H1043   1.083       .  S
C1034      C1039   1.479   1_554  S
C1034      C1035   1.410       .  A
C1035      C1036   1.399       .  A
C1035      O1040   1.372       .  S
C1036      C1037   1.401       .  A
C1036      H1041   1.084       .  S
C1037      C1038   1.408       .  A
C1038      O1042   1.372       .  S
C1039      C1044   1.407       .  A
C1039      C1048   1.402       .  A
O1040      H1056   0.992       .  S
O1042      H1053   0.992       .  S
C1044      C1045   1.399       .  A
C1044      O1049   1.372       .  S
C1045      C1046   1.406       .  A
C1045      H1050   1.083       .  S
C1046      C1047   1.413       .  A
C1047      C1048   1.398       .  A
C1047      O1051   1.371       .  S
C1048      H1052   1.084       .  S
O1049      H1054   0.992       .  S
O1051      H1055   0.991       .  S
C1057      C1058   1.403       .  A
C1057      C1062   1.400       .  A
C1057      H1067   1.084       .  S
C1058      C1063   1.480       .  S
C1058      C1059   1.407       .  A
C1059      C1060   1.401       .  A
C1059      O1064   1.372       .  S
C1060      C1061   1.405       .  A
C1060      H1065   1.084       .  S
C1061      C1062   1.409       .  A
C1062      O1066   1.372       .  S
C1063      C1068   1.407       .  A
C1063      C1072   1.402       .  A
O1064      H1080   0.991       .  S
O1066      H1077   0.992       .  S
C1068      C1069   1.399       .  A
C1068      O1073   1.372       .  S
C1069      C1070   1.407       .  A
C1069      H1074   1.083       .  S
C1070      C1071   1.413       .  A
C1071      C1072   1.400       .  A
C1071      O1075   1.371       .  S
C1072      H1076   1.084       .  S
O1073      H1078   0.990       .  S
O1075      H1079   0.991       .  S
C1081      C1082   1.402       .  A
C1081      C1086   1.399       .  A
C1081      H1091   1.083       .  S
C1082      C1087   1.481       .  S
C1082      C1083   1.408       .  A
C1083      C1084   1.399       .  A
C1083      O1088   1.372       .  S
C1084      C1085   1.406       .  A
C1084      H1089   1.083       .  S
C1085      C1086   1.412       .  A
C1086      O1090   1.372       .  S
C1087      C1092   1.407       .  A
C1087      C1096   1.401       .  A
O1088      H1104   0.991       .  S
O1090      H1101   0.992       .  S
C1092      C1093   1.401       .  A
C1092      O1097   1.372       .  S
C1093      C1094   1.406       .  A
C1093      H1098   1.083       .  S
C1094      C1095   1.414       .  A
C1095      C1096   1.399       .  A
C1095      O1099   1.372       .  S
C1096      H1100   1.084       .  S
O1097      H1102   0.991       .  S
O1099      H1103   0.992       .  S
C1105      C1106   1.403       .  A
C1105      C1110   1.399       .  A
C1105      H1115   1.084       .  S
C1106      C1111   1.483   1_556  S
C1106      C1107   1.409       .  A
C1107      C1108   1.402       .  A
C1107      O1112   1.373       .  S
C1108      C1109   1.404       .  A
C1108      H1113   1.084       .  S
C1109      C1110   1.411       .  A
C1110      O1114   1.372       .  S
C1111      C1116   1.408       .  A
C1111      C1120   1.405       .  A
O1112      H1128   0.993       .  S
O1114      H1125   0.992       .  S
C1116      C1117   1.398       .  A
C1116      O1121   1.371       .  S
C1117      C1118   1.405       .  A
C1117      H1122   1.084       .  S
C1118      C1119   1.410       .  A
C1119      C1120   1.401       .  A
C1119      O1123   1.372       .  S
C1120      H1124   1.084       .  S
O1121      H1126   0.991       .  S
O1123      H1127   0.992       .  S
C1129      C1130   1.402       .  A
C1129      C1134   1.400       .  A
C1129      H1139   1.084       .  S
C1130      C1135   1.478       .  S
C1130      C1131   1.408       .  A
C1131      C1132   1.398       .  A
C1131      O1136   1.372       .  S
C1132      C1133   1.403       .  A
C1132      H1137   1.084       .  S
C1133      C1134   1.410       .  A
C1134      O1138   1.372       .  S
C1135      C1140   1.407       .  A
C1135      C1144   1.400       .  A
O1136      H1152   0.991       .  S
O1138      H1149   0.992       .  S
C1140      C1141   1.400       .  A
C1140      O1145   1.372       .  S
C1141      C1142   1.407       .  A
C1141      H1146   1.083       .  S
C1142      C1143   1.413       .  A
C1143      C1144   1.396       .  A
C1143      O1147   1.371       .  S
C1144      H1148   1.084       .  S
O1145      H1150   0.991       .  S
O1147      H1151   0.992       .  S
C1153      C1154   1.404       .  A
C1153      C1158   1.400       .  A
C1153      H1163   1.083       .  S
C1154      C1159   1.488   1_565  S
C1154      C1155   1.410       .  A
C1155      C1156   1.400       .  A
C1155      O1160   1.372       .  S
C1156      C1157   1.406       .  A
C1156      H1161   1.083       .  S
C1157      C1158   1.412       .  A
C1158      O1162   1.371       .  S
C1159      C1164   1.411       .  A
C1159      C1168   1.405       .  A
O1160      H1176   0.991       .  S
O1162      H1173   0.991       .  S
C1164      C1165   1.401       .  A
C1164      O1169   1.372       .  S
C1165      C1166   1.403       .  A
C1165      H1170   1.084       .  S
C1166      C1167   1.410       .  A
C1167      C1168   1.401       .  A
C1167      O1171   1.372       .  S
C1168      H1172   1.083       .  S
O1169      H1174   0.991       .  S
O1171      H1175   0.992       .  S
C1177      C1178   1.401       .  A
C1177      C1182   1.400       .  A
C1177      H1187   1.084       .  S
C1178      C1183   1.472       .  S
C1178      C1179   1.403       .  A
C1179      C1180   1.396       .  A
C1179      O1184   1.372       .  S
C1180      C1181   1.407       .  A
C1180      H1185   1.083       .  S
C1181      C1182   1.413       .  A
C1182      O1186   1.371       .  S
C1183      C1188   1.404       .  A
C1183      C1192   1.400       .  A
O1184      H1200   0.991       .  S
O1186      H1197   0.992       .  S
C1188      C1189   1.396       .  A
C1188      O1193   1.372       .  S
C1189      C1190   1.407       .  A
C1189      H1194   1.083       .  S
C1190      C1191   1.413       .  A
C1191      C1192   1.400       .  A
C1191      O1195   1.371       .  S
C1192      H1196   1.084       .  S
O1193      H1198   0.991       .  S
O1195      H1199   0.992       .  S
C1201      C1202   1.404       .  A
C1201      C1206   1.400       .  A
C1201      H1211   1.083       .  S
C1202      C1207   1.485   1_565  S
C1202      C1203   1.410       .  A
C1203      C1204   1.399       .  A
C1203      O1208   1.372       .  S
C1204      C1205   1.404       .  A
C1204      H1209   1.084       .  S
C1205      C1206   1.411       .  A
C1206      O1210   1.372       .  S
C1207      C1212   1.408       .  A
C1207      C1216   1.404       .  A
O1208      H1224   0.991       .  S
O1210      H1221   0.991       .  S
C1212      C1213   1.400       .  A
C1212      O1217   1.372       .  S
C1213      C1214   1.406       .  A
C1213      H1218   1.083       .  S
C1214      C1215   1.411       .  A
C1215      C1216   1.399       .  A
C1215      O1219   1.371       .  S
C1216      H1220   1.083       .  S
O1217      H1222   0.992       .  S
O1219      H1223   0.992       .  S
C1225      C1226   1.405       .  A
C1225      C1230   1.398       .  A
C1225      H1235   1.083       .  S
C1226      C1231   1.482   1_554  S
C1226      C1227   1.411       .  A
C1227      C1228   1.398       .  A
C1227      O1232   1.372       .  S
C1228      C1229   1.401       .  A
C1228      H1233   1.084       .  S
C1229      C1230   1.405       .  A
C1230      O1234   1.372       .  S
C1231      C1236   1.407       .  A
C1231      C1240   1.404       .  A
O1232      H1248   0.991       .  S
O1234      H1245   0.992       .  S
C1236      C1237   1.398       .  A
C1236      O1241   1.372       .  S
C1237      C1238   1.406       .  A
C1237      H1242   1.083       .  S
C1238      C1239   1.411       .  A
C1239      C1240   1.399       .  A
C1239      O1243   1.371       .  S
C1240      H1244   1.084       .  S
O1241      H1246   0.992       .  S
O1243      H1247   0.992       .  S
C1249      C1250   1.400       .  A
C1249      C1254   1.399       .  A
C1249      H1259   1.084       .  S
C1250      C1255   1.475       .  S
C1250      C1251   1.404       .  A
C1251      C1252   1.400       .  A
C1251      O1256   1.372       .  S
C1252      C1253   1.408       .  A
C1252      H1257   1.083       .  S
C1253      C1254   1.414       .  A
C1254      O1258   1.371       .  S
C1255      C1260   1.406       .  A
C1255      C1264   1.400       .  A
O1256      H1272   0.991       .  S
O1258      H1269   0.992       .  S
C1260      C1261   1.400       .  A
C1260      O1265   1.371       .  S
C1261      C1262   1.406       .  A
C1261      H1266   1.083       .  S
C1262      C1263   1.413       .  A
C1263      C1264   1.398       .  A
C1263      O1267   1.372       .  S
C1264      H1268   1.084       .  S
O1265      H1270   0.991       .  S
O1267      H1271   0.992       .  S
C1273      C1274   1.398       .  A
C1273      C1278   1.398       .  A
C1273      H1283   1.084       .  S
C1274      C1279   1.468       .  S
C1274      C1275   1.403       .  A
C1275      C1276   1.398       .  A
C1275      O1280   1.372       .  S
C1276      C1277   1.407       .  A
C1276      H1281   1.083       .  S
C1277      C1278   1.414       .  A
C1278      O1282   1.372       .  S
C1279      C1284   1.403       .  A
C1279      C1288   1.398       .  A
O1280      H1296   0.991       .  S
O1282      H1293   0.992       .  S
C1284      C1285   1.398       .  A
C1284      O1289   1.372       .  S
C1285      C1286   1.407       .  A
C1285      H1290   1.083       .  S
C1286      C1287   1.413       .  A
C1287      C1288   1.398       .  A
C1287      O1291   1.372       .  S
C1288      H1292   1.084       .  S
O1289      H1294   0.991       .  S
O1291      H1295   0.992       .  S
C1297      C1298   1.403       .  A
C1297      C1302   1.398       .  A
C1297      H1307   1.084       .  S
C1298      C1303   1.480   1_556  S
C1298      C1299   1.408       .  A
C1299      C1300   1.400       .  A
C1299      O1304   1.372       .  S
C1300      C1301   1.405       .  A
C1300      H1305   1.083       .  S
C1301      C1302   1.411       .  A
C1302      O1306   1.372       .  S
C1303      C1308   1.407       .  A
C1303      C1312   1.404       .  A
O1304      H1320   0.991       .  S
O1306      H1317   0.992       .  S
C1308      C1309   1.398       .  A
C1308      O1313   1.372       .  S
C1309      C1310   1.404       .  A
C1309      H1314   1.084       .  S
C1310      C1311   1.409       .  A
C1311      C1312   1.401       .  A
C1311      O1315   1.371       .  S
C1312      H1316   1.084       .  S
O1313      H1318   0.992       .  S
O1315      H1319   0.991       .  S
C1321      C1322   1.399       .  A
C1321      C1326   1.399       .  A
C1321      H1331   1.084       .  S
C1322      C1327   1.469       .  S
C1322      C1323   1.403       .  A
C1323      C1324   1.397       .  A
C1323      O1328   1.372       .  S
C1324      C1325   1.406       .  A
C1324      H1329   1.083       .  S
C1325      C1326   1.414       .  A
C1326      O1330   1.372       .  S
C1327      C1332   1.404       .  A
C1327      C1336   1.400       .  A
O1328      H1344   0.991       .  S
O1330      H1341   0.992       .  S
C1332      C1333   1.396       .  A
C1332      O1337   1.372       .  S
C1333      C1334   1.405       .  A
C1333      H1338   1.084       .  S
C1334      C1335   1.412       .  A
C1335      C1336   1.399       .  A
C1335      O1339   1.372       .  S
C1336      H1340   1.084       .  S
O1337      H1342   0.991       .  S
O1339      H1343   0.992       .  S
C1345      C1346   1.403       .  A
C1345      C1350   1.400       .  A
C1345      H1355   1.084       .  S
C1346      C1351   1.479   1_655  S
C1346      C1347   1.406       .  A
C1347      C1348   1.398       .  A
C1347      O1352   1.373       .  S
C1348      C1349   1.406       .  A
C1348      H1353   1.083       .  S
C1349      C1350   1.412       .  A
C1350      O1354   1.372       .  S
C1351      C1356   1.410       .  A
C1351      C1360   1.402       .  A
O1352      H1368   0.993       .  S
O1354      H1365   0.992       .  S
C1356      C1357   1.399       .  A
C1356      O1361   1.372       .  S
C1357      C1358   1.401       .  A
C1357      H1362   1.084       .  S
C1358      C1359   1.409       .  A
C1359      C1360   1.398       .  A
C1359      O1363   1.372       .  S
C1360      H1364   1.084       .  S
O1361      H1366   0.991       .  S
O1363      H1367   0.992       .  S
C1369      C1370   1.402       .  A
C1369      C1374   1.397       .  A
C1369      H1379   1.084       .  S
C1370      C1375   1.475       .  S
C1370      C1371   1.405       .  A
C1371      C1372   1.398       .  A
C1371      O1376   1.372       .  S
C1372      C1373   1.406       .  A
C1372      H1377   1.083       .  S
C1373      C1374   1.411       .  A
C1374      O1378   1.372       .  S
C1375      C1380   1.405       .  A
C1375      C1384   1.402       .  A
O1376      H1392   0.991       .  S
O1378      H1389   0.992       .  S
C1380      C1381   1.397       .  A
C1380      O1385   1.372       .  S
C1381      C1382   1.406       .  A
C1381      H1386   1.083       .  S
C1382      C1383   1.413       .  A
C1383      C1384   1.399       .  A
C1383      O1387   1.371       .  S
C1384      H1388   1.084       .  S
O1385      H1390   0.991       .  S
O1387      H1391   0.992       .  S
C1393      C1394   1.405       .  A
C1393      C1398   1.399       .  A
C1393      H1403   1.083       .  S
C1394      C1399   1.482   1_655  S
C1394      C1395   1.409       .  A
C1395      C1396   1.396       .  A
C1395      O1400   1.372       .  S
C1396      C1397   1.403       .  A
C1396      H1401   1.084       .  S
C1397      C1398   1.408       .  A
C1398      O1402   1.372       .  S
C1399      C1404   1.407       .  A
C1399      C1408   1.404       .  A
O1400      H1416   0.992       .  S
O1402      H1413   0.992       .  S
C1404      C1405   1.398       .  A
C1404      O1409   1.373       .  S
C1405      C1406   1.406       .  A
C1405      H1410   1.083       .  S
C1406      C1407   1.411       .  A
C1407      C1408   1.398       .  A
C1407      O1411   1.371       .  S
C1408      H1412   1.083       .  S
O1409      H1414   0.992       .  S
O1411      H1415   0.992       .  S
C1417      C1418   1.405       .  A
C1417      C1422   1.401       .  A
C1417      H1427   1.083       .  S
C1418      C1423   1.485   1_554  S
C1418      C1419   1.410       .  A
C1419      C1420   1.398       .  A
C1419      O1424   1.372       .  S
C1420      C1421   1.403       .  A
C1420      H1425   1.084       .  S
C1421      C1422   1.410       .  A
C1422      O1426   1.372       .  S
C1423      C1428   1.409       .  A
C1423      C1432   1.403       .  A
O1424      H1440   0.992       .  S
O1426      H1437   0.991       .  S
C1428      C1429   1.402       .  A
C1428      O1433   1.372       .  S
C1429      C1430   1.406       .  A
C1429      H1434   1.083       .  S
C1430      C1431   1.411       .  A
C1431      C1432   1.398       .  A
C1431      O1435   1.372       .  S
C1432      H1436   1.084       .  S
O1433      H1438   0.992       .  S
O1435      H1439   0.991       .  S
C1441      C1442   1.402       .  A
C1441      C1446   1.399       .  A
C1441      H1451   1.083       .  S
C1442      C1447   1.483       .  S
C1442      C1443   1.408       .  A
C1443      C1444   1.401       .  A
C1443      O1448   1.372       .  S
C1444      C1445   1.407       .  A
C1444      H1449   1.083       .  S
C1445      C1446   1.414       .  A
C1446      O1450   1.371       .  S
C1447      C1452   1.410       .  A
C1447      C1456   1.402       .  A
O1448      H1464   0.991       .  S
O1450      H1461   0.992       .  S
C1452      C1453   1.402       .  A
C1452      O1457   1.372       .  S
C1453      C1454   1.403       .  A
C1453      H1458   1.084       .  S
C1454      C1455   1.411       .  A
C1455      C1456   1.399       .  A
C1455      O1459   1.372       .  S
C1456      H1460   1.084       .  S
O1457      H1462   0.991       .  S
O1459      H1463   0.992       .  S
C1465      C1466   1.402       .  A
C1465      C1470   1.399       .  A
C1465      H1475   1.084       .  S
C1466      C1471   1.477       .  S
C1466      C1467   1.406       .  A
C1467      C1468   1.398       .  A
C1467      O1472   1.372       .  S
C1468      C1469   1.406       .  A
C1468      H1473   1.084       .  S
C1469      C1470   1.411       .  A
C1470      O1474   1.372       .  S
C1471      C1476   1.405       .  A
C1471      C1480   1.402       .  A
O1472      H1488   0.991       .  S
O1474      H1485   0.992       .  S
C1476      C1477   1.398       .  A
C1476      O1481   1.372       .  S
C1477      C1478   1.406       .  A
C1477      H1482   1.083       .  S
C1478      C1479   1.412       .  A
C1479      C1480   1.400       .  A
C1479      O1483   1.372       .  S
C1480      H1484   1.084       .  S
O1481      H1486   0.991       .  S
O1483      H1487   0.991       .  S
C1489      C1490   1.405       .  A
C1489      C1494   1.400       .  A
C1489      H1499   1.083       .  S
C1490      C1495   1.485   1_556  S
C1490      C1491   1.409       .  A
C1491      C1492   1.397       .  A
C1491      O1496   1.372       .  S
C1492      C1493   1.405       .  A
C1492      H1497   1.083       .  S
C1493      C1494   1.411       .  A
C1494      O1498   1.372       .  S
C1495      C1500   1.409       .  A
C1495      C1504   1.406       .  A
O1496      H1512   0.991       .  S
O1498      H1509   0.992       .  S
C1500      C1501   1.398       .  A
C1500      O1505   1.372       .  S
C1501      C1502   1.404       .  A
C1501      H1506   1.084       .  S
C1502      C1503   1.408       .  A
C1503      C1504   1.400       .  A
C1503      O1507   1.372       .  S
C1504      H1508   1.083       .  S
O1505      H1510   0.992       .  S
O1507      H1511   0.991       .  S
C1513      C1514   1.399       .  A
C1513      C1518   1.397       .  A
C1513      H1523   1.084       .  S
C1514      C1519   1.473       .  S
C1514      C1515   1.405       .  A
C1515      C1516   1.401       .  A
C1515      O1520   1.372       .  S
C1516      C1517   1.407       .  A
C1516      H1521   1.083       .  S
C1517      C1518   1.413       .  A
C1518      O1522   1.372       .  S
C1519      C1524   1.404       .  A
C1519      C1528   1.400       .  A
O1520      H1536   0.991       .  S
O1522      H1533   0.992       .  S
C1524      C1525   1.398       .  A
C1524      O1529   1.372       .  S
C1525      C1526   1.408       .  A
C1525      H1530   1.083       .  S
C1526      C1527   1.414       .  A
C1527      C1528   1.400       .  A
C1527      O1531   1.371       .  S
C1528      H1532   1.084       .  S
O1529      H1534   0.991       .  S
O1531      H1535   0.992       .  S
C1537      C1538   1.403       .  A
C1537      C1542   1.396       .  A
C1537      H1547   1.083       .  S
C1538      C1543   1.484   1_565  S
C1538      C1539   1.411       .  A
C1539      C1540   1.403       .  A
C1539      O1544   1.372       .  S
C1540      C1541   1.405       .  A
C1540      H1545   1.084       .  S
C1541      C1542   1.409       .  A
C1542      O1546   1.372       .  S
C1543      C1548   1.409       .  A
C1543      C1552   1.403       .  A
O1544      H1560   0.991       .  S
O1546      H1557   0.992       .  S
C1548      C1549   1.400       .  A
C1548      O1553   1.373       .  S
C1549      C1550   1.405       .  A
C1549      H1554   1.083       .  S
C1550      C1551   1.413       .  A
C1551      C1552   1.401       .  A
C1551      O1555   1.372       .  S
C1552      H1556   1.083       .  S
O1553      H1558   0.992       .  S
O1555      H1559   0.992       .  S
C1561      C1562   1.399       .  A
C1561      C1566   1.399       .  A
C1561      H1571   1.084       .  S
C1562      C1567   1.471       .  S
C1562      C1563   1.404       .  A
C1563      C1564   1.397       .  A
C1563      O1568   1.372       .  S
C1564      C1565   1.407       .  A
C1564      H1569   1.083       .  S
C1565      C1566   1.414       .  A
C1566      O1570   1.371       .  S
C1567      C1572   1.404       .  A
C1567      C1576   1.398       .  A
O1568      H1584   0.991       .  S
O1570      H1581   0.992       .  S
C1572      C1573   1.401       .  A
C1572      O1577   1.371       .  S
C1573      C1574   1.408       .  A
C1573      H1578   1.083       .  S
C1574      C1575   1.414       .  A
C1575      C1576   1.396       .  A
C1575      O1579   1.371       .  S
C1576      H1580   1.084       .  S
O1577      H1582   0.992       .  S
O1579      H1583   0.992       .  S
C1585      C1586   1.402       .  A
C1585      C1590   1.400       .  A
C1585      H1595   1.084       .  S
C1586      C1591   1.483   1_545  S
C1586      C1587   1.409       .  A
C1587      C1588   1.401       .  A
C1587      O1592   1.373       .  S
C1588      C1589   1.404       .  A
C1588      H1593   1.083       .  S
C1589      C1590   1.414       .  A
C1590      O1594   1.372       .  S
C1591      C1596   1.409       .  A
C1591      C1600   1.405       .  A
O1592      H1608   0.992       .  S
O1594      H1605   0.991       .  S
C1596      C1597   1.398       .  A
C1596      O1601   1.371       .  S
C1597      C1598   1.403       .  A
C1597      H1602   1.084       .  S
C1598      C1599   1.410       .  A
C1599      C1600   1.402       .  A
C1599      O1603   1.372       .  S
C1600      H1604   1.084       .  S
O1601      H1606   0.991       .  S
O1603      H1607   0.992       .  S
C1609      C1610   1.403       .  A
C1609      C1614   1.396       .  A
C1609      H1619   1.083       .  S
C1610      C1615   1.483   1_554  S
C1610      C1611   1.410       .  A
C1611      C1612   1.400       .  A
C1611      O1616   1.372       .  S
C1612      C1613   1.404       .  A
C1612      H1617   1.084       .  S
C1613      C1614   1.409       .  A
C1614      O1618   1.372       .  S
C1615      C1620   1.409       .  A
C1615      C1624   1.404       .  A
O1616      H1632   0.991       .  S
O1618      H1629   0.992       .  S
C1620      C1621   1.397       .  A
C1620      O1625   1.373       .  S
C1621      C1622   1.402       .  A
C1621      H1626   1.084       .  S
C1622      C1623   1.411       .  A
C1623      C1624   1.400       .  A
C1623      O1627   1.372       .  S
C1624      H1628   1.083       .  S
O1625      H1630   0.992       .  S
O1627      H1631   0.992       .  S
C1633      C1634   1.402       .  A
C1633      C1638   1.398       .  A
C1633      H1643   1.084       .  S
C1634      C1639   1.480   1_545  S
C1634      C1635   1.409       .  A
C1635      C1636   1.400       .  A
C1635      O1640   1.373       .  S
C1636      C1637   1.403       .  A
C1636      H1641   1.084       .  S
C1637      C1638   1.411       .  A
C1638      O1642   1.372       .  S
C1639      C1644   1.407       .  A
C1639      C1648   1.404       .  A
O1640      H1656   0.993       .  S
O1642      H1653   0.992       .  S
C1644      C1645   1.397       .  A
C1644      O1649   1.371       .  S
C1645      C1646   1.405       .  A
C1645      H1650   1.084       .  S
C1646      C1647   1.410       .  A
C1647      C1648   1.400       .  A
C1647      O1651   1.372       .  S
C1648      H1652   1.084       .  S
O1649      H1654   0.991       .  S
O1651      H1655   0.992       .  S
C1657      C1658   1.403       .  A
C1657      C1662   1.397       .  A
C1657      H1667   1.084       .  S
C1658      C1663   1.484   1_455  S
C1658      C1659   1.410       .  A
C1659      C1660   1.402       .  A
C1659      O1664   1.373       .  S
C1660      C1661   1.404       .  A
C1660      H1665   1.083       .  S
C1661      C1662   1.411       .  A
C1662      O1666   1.372       .  S
C1663      C1668   1.409       .  A
C1663      C1672   1.404       .  A
O1664      H1680   0.993       .  S
O1666      H1677   0.992       .  S
C1668      C1669   1.399       .  A
C1668      O1673   1.371       .  S
C1669      C1670   1.406       .  A
C1669      H1674   1.084       .  S
C1670      C1671   1.410       .  A
C1671      C1672   1.398       .  A
C1671      O1675   1.372       .  S
C1672      H1676   1.084       .  S
O1673      H1678   0.991       .  S
O1675      H1679   0.991       .  S
C1681      C1682   1.402       .  A
C1681      C1686   1.398       .  A
C1681      H1691   1.084       .  S
C1682      C1687   1.484   1_455  S
C1682      C1683   1.410       .  A
C1683      C1684   1.404       .  A
C1683      O1688   1.372       .  S
C1684      C1685   1.405       .  A
C1684      H1689   1.084       .  S
C1685      C1686   1.411       .  A
C1686      O1690   1.372       .  S
C1687      C1692   1.408       .  A
C1687      C1696   1.404       .  A
O1688      H1704   0.993       .  S
O1690      H1701   0.991       .  S
C1692      C1693   1.400       .  A
C1692      O1697   1.371       .  S
C1693      C1694   1.406       .  A
C1693      H1698   1.083       .  S
C1694      C1695   1.411       .  A
C1695      C1696   1.400       .  A
C1695      O1699   1.372       .  S
C1696      H1700   1.084       .  S
O1697      H1702   0.991       .  S
O1699      H1703   0.992       .  S
C1705      C1706   1.401       .  A
C1705      C1710   1.398       .  A
C1705      H1715   1.084       .  S
C1706      C1711   1.479   1_565  S
C1706      C1707   1.407       .  A
C1707      C1708   1.401       .  A
C1707      O1712   1.372       .  S
C1708      C1709   1.406       .  A
C1708      H1713   1.083       .  S
C1709      C1710   1.412       .  A
C1710      O1714   1.371       .  S
C1711      C1716   1.408       .  A
C1711      C1720   1.403       .  A
O1712      H1728   0.992       .  S
O1714      H1725   0.991       .  S
C1716      C1717   1.399       .  A
C1716      O1721   1.371       .  S
C1717      C1718   1.404       .  A
C1717      H1722   1.084       .  S
C1718      C1719   1.408       .  A
C1719      C1720   1.398       .  A
C1719      O1723   1.372       .  S
C1720      H1724   1.084       .  S
O1721      H1726   0.991       .  S
O1723      H1727   0.991       .  S
C1729      C1730   1.402       .  A
C1729      C1734   1.404       .  A
C1729      H1739   1.084       .  S
C1730      C1735   1.476       .  S
C1730      C1731   1.403       .  A
C1731      C1732   1.396       .  A
C1731      O1736   1.372       .  S
C1732      C1733   1.407       .  A
C1732      H1737   1.083       .  S
C1733      C1734   1.414       .  A
C1734      O1738   1.371       .  S
C1735      C1740   1.404       .  A
C1735      C1744   1.400       .  A
O1736      H1752   0.991       .  S
O1738      H1749   0.992       .  S
C1740      C1741   1.400       .  A
C1740      O1745   1.371       .  S
C1741      C1742   1.408       .  A
C1741      H1746   1.083       .  S
C1742      C1743   1.413       .  A
C1743      C1744   1.400       .  A
C1743      O1747   1.371       .  S
C1744      H1748   1.084       .  S
O1745      H1750   0.991       .  S
O1747      H1751   0.992       .  S
C1753      C1754   1.401       .  A
C1753      C1758   1.400       .  A
C1753      H1763   1.084       .  S
C1754      C1759   1.473       .  S
C1754      C1755   1.404       .  A
C1755      C1756   1.397       .  A
C1755      O1760   1.372       .  S
C1756      C1757   1.407       .  A
C1756      H1761   1.083       .  S
C1757      C1758   1.413       .  A
C1758      O1762   1.371       .  S
C1759      C1764   1.405       .  A
C1759      C1768   1.400       .  A
O1760      H1776   0.992       .  S
O1762      H1773   0.992       .  S
C1764      C1765   1.398       .  A
C1764      O1769   1.372       .  S
C1765      C1766   1.406       .  A
C1765      H1770   1.083       .  S
C1766      C1767   1.414       .  A
C1767      C1768   1.399       .  A
C1767      O1771   1.372       .  S
C1768      H1772   1.084       .  S
O1769      H1774   0.992       .  S
O1771      H1775   0.992       .  S
C1777      C1778   1.400       .  A
C1777      C1782   1.399       .  A
C1777      H1787   1.084       .  S
C1778      C1783   1.473       .  S
C1778      C1779   1.404       .  A
C1779      C1780   1.399       .  A
C1779      O1784   1.372       .  S
C1780      C1781   1.406       .  A
C1780      H1785   1.083       .  S
C1781      C1782   1.413       .  A
C1782      O1786   1.372       .  S
C1783      C1788   1.404       .  A
C1783      C1792   1.402       .  A
O1784      H1800   0.991       .  S
O1786      H1797   0.992       .  S
C1788      C1789   1.398       .  A
C1788      O1793   1.372       .  S
C1789      C1790   1.404       .  A
C1789      H1794   1.084       .  S
C1790      C1791   1.410       .  A
C1791      C1792   1.401       .  A
C1791      O1795   1.372       .  S
C1792      H1796   1.084       .  S
O1793      H1798   0.992       .  S
O1795      H1799   0.992       .  S
C1801      C1802   1.404       .  A
C1801      C1806   1.401       .  A
C1801      H1811   1.084       .  S
C1802      C1807   1.484       .  S
C1802      C1803   1.408       .  A
C1803      C1804   1.400       .  A
C1803      O1808   1.373       .  S
C1804      C1805   1.404       .  A
C1804      H1809   1.083       .  S
C1805      C1806   1.412       .  A
C1806      O1810   1.372       .  S
C1807      C1812   1.410       .  A
C1807      C1816   1.403       .  A
O1808      H1824   0.993       .  S
O1810      H1821   0.992       .  S
C1812      C1813   1.400       .  A
C1812      O1817   1.371       .  S
C1813      C1814   1.403       .  A
C1813      H1818   1.084       .  S
C1814      C1815   1.411       .  A
C1815      C1816   1.399       .  A
C1815      O1819   1.372       .  S
C1816      H1820   1.084       .  S
O1817      H1822   0.991       .  S
O1819      H1823   0.991       .  S
C1825      C1826   1.401       .  A
C1825      C1830   1.399       .  A
C1825      H1835   1.083       .  S
C1826      C1831   1.479       .  S
C1826      C1827   1.408       .  A
C1827      C1828   1.398       .  A
C1827      O1832   1.372       .  S
C1828      C1829   1.405       .  A
C1828      H1833   1.083       .  S
C1829      C1830   1.414       .  A
C1830      O1834   1.372       .  S
C1831      C1836   1.407       .  A
C1831      C1840   1.403       .  A
O1832      H1848   0.991       .  S
O1834      H1845   0.991       .  S
C1836      C1837   1.398       .  A
C1836      O1841   1.372       .  S
C1837      C1838   1.405       .  A
C1837      H1842   1.084       .  S
C1838      C1839   1.410       .  A
C1839      C1840   1.399       .  A
C1839      O1843   1.371       .  S
C1840      H1844   1.084       .  S
O1841      H1846   0.991       .  S
O1843      H1847   0.991       .  S
C1849      C1850   1.402       .  A
C1849      C1854   1.403       .  A
C1849      H1859   1.084       .  S
C1850      C1855   1.477       .  S
C1850      C1851   1.404       .  A
C1851      C1852   1.397       .  A
C1851      O1856   1.372       .  S
C1852      C1853   1.408       .  A
C1852      H1857   1.083       .  S
C1853      C1854   1.414       .  A
C1854      O1858   1.371       .  S
C1855      C1860   1.405       .  A
C1855      C1864   1.401       .  A
O1856      H1872   0.991       .  S
O1858      H1869   0.992       .  S
C1860      C1861   1.401       .  A
C1860      O1865   1.371       .  S
C1861      C1862   1.407       .  A
C1861      H1866   1.083       .  S
C1862      C1863   1.413       .  A
C1863      C1864   1.399       .  A
C1863      O1867   1.372       .  S
C1864      H1868   1.084       .  S
O1865      H1870   0.991       .  S
O1867      H1871   0.992       .  S
C1873      C1874   1.403       .  A
C1873      C1878   1.400       .  A
C1873      H1883   1.083       .  S
C1874      C1879   1.484       .  S
C1874      C1875   1.409       .  A
C1875      C1876   1.397       .  A
C1875      O1880   1.372       .  S
C1876      C1877   1.405       .  A
C1876      H1881   1.083       .  S
C1877      C1878   1.413       .  A
C1878      O1882   1.372       .  S
C1879      C1884   1.411       .  A
C1879      C1888   1.406       .  A
O1880      H1896   0.991       .  S
O1882      H1893   0.992       .  S
C1884      C1885   1.401       .  A
C1884      O1889   1.372       .  S
C1885      C1886   1.401       .  A
C1885      H1890   1.084       .  S
C1886      C1887   1.404       .  A
C1887      C1888   1.397       .  A
C1887      O1891   1.372       .  S
C1888      H1892   1.083       .  S
O1889      H1894   0.992       .  S
O1891      H1895   0.992       .  S
C1897      C1898   1.401       .  A
C1897      C1902   1.401       .  A
C1897      H1907   1.084       .  S
C1898      C1903   1.472       .  S
C1898      C1899   1.403       .  A
C1899      C1900   1.396       .  A
C1899      O1904   1.372       .  S
C1900      C1901   1.406       .  A
C1900      H1905   1.083       .  S
C1901      C1902   1.413       .  A
C1902      O1906   1.371       .  S
C1903      C1908   1.404       .  A
C1903      C1912   1.399       .  A
O1904      H1920   0.991       .  S
O1906      H1917   0.992       .  S
C1908      C1909   1.399       .  A
C1908      O1913   1.372       .  S
C1909      C1910   1.407       .  A
C1909      H1914   1.083       .  S
C1910      C1911   1.414       .  A
C1911      C1912   1.399       .  A
C1911      O1915   1.372       .  S
C1912      H1916   1.084       .  S
O1913      H1918   0.991       .  S
O1915      H1919   0.993       .  S
C1921      C1922   1.403       .  A
C1921      C1926   1.397       .  A
C1921      H1931   1.084       .  S
C1922      C1927   1.478       .  S
C1922      C1923   1.407       .  A
C1923      C1924   1.399       .  A
C1923      O1928   1.373       .  S
C1924      C1925   1.404       .  A
C1924      H1929   1.084       .  S
C1925      C1926   1.409       .  A
C1926      O1930   1.372       .  S
C1927      C1932   1.409       .  A
C1927      C1936   1.401       .  A
O1928      H1944   0.993       .  S
O1930      H1941   0.992       .  S
C1932      C1933   1.399       .  A
C1932      O1937   1.372       .  S
C1933      C1934   1.405       .  A
C1933      H1938   1.084       .  S
C1934      C1935   1.410       .  A
C1935      C1936   1.396       .  A
C1935      O1939   1.372       .  S
C1936      H1940   1.084       .  S
O1937      H1942   0.991       .  S
O1939      H1943   0.992       .  S
C1945      C1946   1.404       .  A
C1945      C1950   1.401       .  A
C1945      H1955   1.083       .  S
C1946      C1951   1.482       .  S
C1946      C1947   1.409       .  A
C1947      C1948   1.397       .  A
C1947      O1952   1.372       .  S
C1948      C1949   1.403       .  A
C1948      H1953   1.084       .  S
C1949      C1950   1.410       .  A
C1950      O1954   1.372       .  S
C1951      C1956   1.408       .  A
C1951      C1960   1.402       .  A
O1952      H1968   0.991       .  S
O1954      H1965   0.991       .  S
C1956      C1957   1.402       .  A
C1956      O1961   1.372       .  S
C1957      C1958   1.406       .  A
C1957      H1962   1.084       .  S
C1958      C1959   1.410       .  A
C1959      C1960   1.397       .  A
C1959      O1963   1.372       .  S
C1960      H1964   1.084       .  S
O1961      H1966   0.992       .  S
O1963      H1967   0.991       .  S
C1969      C1970   1.399       .  A
C1969      C1974   1.396       .  A
C1969      H1979   1.084       .  S
C1970      C1975   1.470       .  S
C1970      C1971   1.405       .  A
C1971      C1972   1.397       .  A
C1971      O1976   1.372       .  S
C1972      C1973   1.405       .  A
C1972      H1977   1.083       .  S
C1973      C1974   1.412       .  A
C1974      O1978   1.372       .  S
C1975      C1980   1.404       .  A
C1975      C1984   1.400       .  A
O1976      H1992   0.991       .  S
O1978      H1989   0.992       .  S
C1980      C1981   1.396       .  A
C1980      O1985   1.372       .  S
C1981      C1982   1.406       .  A
C1981      H1986   1.083       .  S
C1982      C1983   1.413       .  A
C1983      C1984   1.398       .  A
C1983      O1987   1.371       .  S
C1984      H1988   1.084       .  S
O1985      H1990   0.991       .  S
O1987      H1991   0.992       .  S
C1993      C1994   1.402       .  A
C1993      C1998   1.399       .  A
C1993      H2003   1.083       .  S
C1994      C1999   1.481       .  S
C1994      C1995   1.408       .  A
C1995      C1996   1.398       .  A
C1995      O2000   1.372       .  S
C1996      C1997   1.406       .  A
C1996      H2001   1.083       .  S
C1997      C1998   1.414       .  A
C1998      O2002   1.372       .  S
C1999      C2004   1.408       .  A
C1999      C2008   1.402       .  A
O2000      H2016   0.992       .  S
O2002      H2013   0.992       .  S
C2004      C2005   1.401       .  A
C2004      O2009   1.372       .  S
C2005      C2006   1.405       .  A
C2005      H2010   1.083       .  S
C2006      C2007   1.412       .  A
C2007      C2008   1.398       .  A
C2007      O2011   1.372       .  S
C2008      H2012   1.084       .  S
O2009      H2014   0.992       .  S
O2011      H2015   0.991       .  S
C2017      C2018   1.400       .  A
C2017      C2022   1.402       .  A
C2017      H2027   1.084       .  S
C2018      C2023   1.472       .  S
C2018      C2019   1.403       .  A
C2019      C2020   1.397       .  A
C2019      O2024   1.372       .  S
C2020      C2021   1.407       .  A
C2020      H2025   1.083       .  S
C2021      C2022   1.414       .  A
C2022      O2026   1.371       .  S
C2023      C2028   1.404       .  A
C2023      C2032   1.399       .  A
O2024      H2040   0.992       .  S
O2026      H2037   0.991       .  S
C2028      C2029   1.399       .  A
C2028      O2033   1.372       .  S
C2029      C2030   1.408       .  A
C2029      H2034   1.083       .  S
C2030      C2031   1.414       .  A
C2031      C2032   1.399       .  A
C2031      O2035   1.371       .  S
C2032      H2036   1.084       .  S
O2033      H2038   0.992       .  S
O2035      H2039   0.991       .  S
C2041      C2042   1.404       .  A
C2041      C2046   1.398       .  A
C2041      H2051   1.083       .  S
C2042      C2047   1.480       .  S
C2042      C2043   1.409       .  A
C2043      C2044   1.397       .  A
C2043      O2048   1.372       .  S
C2044      C2045   1.403       .  A
C2044      H2049   1.084       .  S
C2045      C2046   1.409       .  A
C2046      O2050   1.372       .  S
C2047      C2052   1.408       .  A
C2047      C2056   1.403       .  A
O2048      H2064   0.991       .  S
O2050      H2061   0.992       .  S
C2052      C2053   1.398       .  A
C2052      O2057   1.372       .  S
C2053      C2054   1.405       .  A
C2053      H2058   1.083       .  S
C2054      C2055   1.411       .  A
C2055      C2056   1.397       .  A
C2055      O2059   1.372       .  S
C2056      H2060   1.084       .  S
O2057      H2062   0.992       .  S
O2059      H2063   0.992       .  S
C2065      C2066   1.402       .  A
C2065      C2070   1.401       .  A
C2065      H2075   1.084       .  S
C2066      C2071   1.476       .  S
C2066      C2067   1.405       .  A
C2067      C2068   1.398       .  A
C2067      O2072   1.372       .  S
C2068      C2069   1.406       .  A
C2068      H2073   1.083       .  S
C2069      C2070   1.412       .  A
C2070      O2074   1.371       .  S
C2071      C2076   1.406       .  A
C2071      C2080   1.401       .  A
O2072      H2088   0.991       .  S
O2074      H2085   0.992       .  S
C2076      C2077   1.397       .  A
C2076      O2081   1.372       .  S
C2077      C2078   1.407       .  A
C2077      H2082   1.083       .  S
C2078      C2079   1.414       .  A
C2079      C2080   1.400       .  A
C2079      O2083   1.371       .  S
C2080      H2084   1.084       .  S
O2081      H2086   0.991       .  S
O2083      H2087   0.992       .  S
C2089      C2090   1.399       .  A
C2089      C2094   1.398       .  A
C2089      H2099   1.084       .  S
C2090      C2095   1.473       .  S
C2090      C2091   1.405       .  A
C2091      C2092   1.400       .  A
C2091      O2096   1.372       .  S
C2092      C2093   1.406       .  A
C2092      H2097   1.083       .  S
C2093      C2094   1.412       .  A
C2094      O2098   1.372       .  S
C2095      C2100   1.405       .  A
C2095      C2104   1.399       .  A
O2096      H2112   0.991       .  S
O2098      H2109   0.992       .  S
C2100      C2101   1.399       .  A
C2100      O2105   1.372       .  S
C2101      C2102   1.406       .  A
C2101      H2106   1.083       .  S
C2102      C2103   1.414       .  A
C2103      C2104   1.399       .  A
C2103      O2107   1.372       .  S
C2104      H2108   1.084       .  S
O2105      H2110   0.991       .  S
O2107      H2111   0.992       .  S
C2113      C2114   1.402       .  A
C2113      C2118   1.397       .  A
C2113      H2123   1.083       .  S
C2114      C2119   1.479       .  S
C2114      C2115   1.410       .  A
C2115      C2116   1.401       .  A
C2115      O2120   1.372       .  S
C2116      C2117   1.401       .  A
C2116      H2121   1.084       .  S
C2117      C2118   1.406       .  A
C2118      O2122   1.372       .  S
C2119      C2124   1.407       .  A
C2119      C2128   1.400       .  A
O2120      H2136   0.991       .  S
O2122      H2133   0.992       .  S
C2124      C2125   1.401       .  A
C2124      O2129   1.372       .  S
C2125      C2126   1.406       .  A
C2125      H2130   1.083       .  S
C2126      C2127   1.414       .  A
C2127      C2128   1.398       .  A
C2127      O2131   1.371       .  S
C2128      H2132   1.084       .  S
O2129      H2134   0.992       .  S
O2131      H2135   0.992       .  S
C2137      C2138   1.398       .  A
C2137      C2142   1.399       .  A
C2137      H2147   1.084       .  S
C2138      C2143   1.470       .  S
C2138      C2139   1.404       .  A
C2139      C2140   1.399       .  A
C2139      O2144   1.372       .  S
C2140      C2141   1.407       .  A
C2140      H2145   1.083       .  S
C2141      C2142   1.415       .  A
C2142      O2146   1.372       .  S
C2143      C2148   1.403       .  A
C2143      C2152   1.399       .  A
O2144      H2160   0.991       .  S
O2146      H2157   0.992       .  S
C2148      C2149   1.397       .  A
C2148      O2153   1.372       .  S
C2149      C2150   1.407       .  A
C2149      H2154   1.083       .  S
C2150      C2151   1.415       .  A
C2151      C2152   1.400       .  A
C2151      O2155   1.371       .  S
C2152      H2156   1.084       .  S
O2153      H2158   0.991       .  S
O2155      H2159   0.992       .  S
C2161      C2162   1.404       .  A
C2161      C2166   1.398       .  A
C2161      H2171   1.083       .  S
C2162      C2167   1.484       .  S
C2162      C2163   1.409       .  A
C2163      C2164   1.399       .  A
C2163      O2168   1.372       .  S
C2164      C2165   1.405       .  A
C2164      H2169   1.083       .  S
C2165      C2166   1.411       .  A
C2166      O2170   1.372       .  S
C2167      C2172   1.409       .  A
C2167      C2176   1.405       .  A
O2168      H2184   0.991       .  S
O2170      H2181   0.992       .  S
C2172      C2173   1.399       .  A
C2172      O2177   1.372       .  S
C2173      C2174   1.403       .  A
C2173      H2178   1.084       .  S
C2174      C2175   1.410       .  A
C2175      C2176   1.400       .  A
C2175      O2179   1.372       .  S
C2176      H2180   1.083       .  S
O2177      H2182   0.992       .  S
O2179      H2183   0.992       .  S
C2185      C2186   1.403       .  A
C2185      C2190   1.397       .  A
C2185      H2195   1.083       .  S
C2186      C2191   1.487       .  S
C2186      C2187   1.410       .  A
C2187      C2188   1.401       .  A
C2187      O2192   1.372       .  S
C2188      C2189   1.407       .  A
C2188      H2193   1.083       .  S
C2189      C2190   1.413       .  A
C2190      O2194   1.372       .  S
C2191      C2196   1.412       .  A
C2191      C2200   1.406       .  A
O2192      H2208   0.991       .  S
O2194      H2205   0.991       .  S
C2196      C2197   1.399       .  A
C2196      O2201   1.373       .  S
C2197      C2198   1.400       .  A
C2197      H2202   1.084       .  S
C2198      C2199   1.408       .  A
C2199      C2200   1.400       .  A
C2199      O2203   1.372       .  S
C2200      H2204   1.083       .  S
O2201      H2206   0.992       .  S
O2203      H2207   0.992       .  S
C2209      C2210   1.400       .  A
C2209      C2214   1.401       .  A
C2209      H2219   1.084       .  S
C2210      C2215   1.472       .  S
C2210      C2211   1.403       .  A
C2211      C2212   1.398       .  A
C2211      O2216   1.372       .  S
C2212      C2213   1.407       .  A
C2212      H2217   1.083       .  S
C2213      C2214   1.414       .  A
C2214      O2218   1.371       .  S
C2215      C2220   1.403       .  A
C2215      C2224   1.400       .  A
O2216      H2232   0.991       .  S
O2218      H2229   0.992       .  S
C2220      C2221   1.397       .  A
C2220      O2225   1.372       .  S
C2221      C2222   1.407       .  A
C2221      H2226   1.083       .  S
C2222      C2223   1.415       .  A
C2223      C2224   1.401       .  A
C2223      O2227   1.371       .  S
C2224      H2228   1.084       .  S
O2225      H2230   0.991       .  S
O2227      H2231   0.992       .  S
C2233      C2234   1.401       .  A
C2233      C2238   1.399       .  A
C2233      H2243   1.084       .  S
C2234      C2239   1.480       .  S
C2234      C2235   1.406       .  A
C2235      C2236   1.402       .  A
C2235      O2240   1.372       .  S
C2236      C2237   1.407       .  A
C2236      H2241   1.083       .  S
C2237      C2238   1.413       .  A
C2238      O2242   1.371       .  S
C2239      C2244   1.407       .  A
C2239      C2248   1.401       .  A
O2240      H2256   0.992       .  S
O2242      H2253   0.991       .  S
C2244      C2245   1.403       .  A
C2244      O2249   1.372       .  S
C2245      C2246   1.405       .  A
C2245      H2250   1.083       .  S
C2246      C2247   1.412       .  A
C2247      C2248   1.398       .  A
C2247      O2251   1.372       .  S
C2248      H2252   1.084       .  S
O2249      H2254   0.992       .  S
O2251      H2255   0.992       .  S
C2257      C2258   1.400       .  A
C2257      C2262   1.397       .  A
C2257      H2267   1.084       .  S
C2258      C2263   1.472       .  S
C2258      C2259   1.405       .  A
C2259      C2260   1.400       .  A
C2259      O2264   1.372       .  S
C2260      C2261   1.407       .  A
C2260      H2265   1.084       .  S
C2261      C2262   1.410       .  A
C2262      O2266   1.371       .  S
C2263      C2268   1.403       .  A
C2263      C2272   1.400       .  A
O2264      H2280   0.991       .  S
O2266      H2277   0.992       .  S
C2268      C2269   1.397       .  A
C2268      O2273   1.372       .  S
C2269      C2270   1.407       .  A
C2269      H2274   1.083       .  S
C2270      C2271   1.414       .  A
C2271      C2272   1.400       .  A
C2271      O2275   1.371       .  S
C2272      H2276   1.084       .  S
O2273      H2278   0.991       .  S
O2275      H2279   0.992       .  S
C2281      C2282   1.405       .  A
C2281      C2286   1.398       .  A
C2281      H2291   1.084       .  S
C2282      C2287   1.486       .  S
C2282      C2283   1.410       .  A
C2283      C2284   1.401       .  A
C2283      O2288   1.373       .  S
C2284      C2285   1.404       .  A
C2284      H2289   1.084       .  S
C2285      C2286   1.409       .  A
C2286      O2290   1.372       .  S
C2287      C2292   1.411       .  A
C2287      C2296   1.404       .  A
O2288      H2304   0.993       .  S
O2290      H2301   0.992       .  S
C2292      C2293   1.400       .  A
C2292      O2297   1.371       .  S
C2293      C2294   1.405       .  A
C2293      H2298   1.084       .  S
C2294      C2295   1.410       .  A
C2295      C2296   1.398       .  A
C2295      O2299   1.372       .  S
C2296      H2300   1.084       .  S
O2297      H2302   0.991       .  S
O2299      H2303   0.992       .  S
C2305      C2306   1.401       .  A
C2305      C2310   1.397       .  A
C2305      H2315   1.083       .  S
C2306      C2311   1.477       .  S
C2306      C2307   1.407       .  A
C2307      C2308   1.397       .  A
C2307      O2312   1.372       .  S
C2308      C2309   1.405       .  A
C2308      H2313   1.083       .  S
C2309      C2310   1.412       .  A
C2310      O2314   1.372       .  S
C2311      C2316   1.406       .  A
C2311      C2320   1.401       .  A
O2312      H2328   0.991       .  S
O2314      H2325   0.992       .  S
C2316      C2317   1.399       .  A
C2316      O2321   1.372       .  S
C2317      C2318   1.407       .  A
C2317      H2322   1.083       .  S
C2318      C2319   1.411       .  A
C2319      C2320   1.396       .  A
C2319      O2323   1.372       .  S
C2320      H2324   1.084       .  S
O2321      H2326   0.991       .  S
O2323      H2327   0.992       .  S
C2329      C2330   1.400       .  A
C2329      C2334   1.399       .  A
C2329      H2339   1.084       .  S
C2330      C2335   1.470       .  S
C2330      C2331   1.402       .  A
C2331      C2332   1.396       .  A
C2331      O2336   1.372       .  S
C2332      C2333   1.408       .  A
C2332      H2337   1.083       .  S
C2333      C2334   1.413       .  A
C2334      O2338   1.371       .  S
C2335      C2340   1.403       .  A
C2335      C2344   1.399       .  A
O2336      H2352   0.992       .  S
O2338      H2349   0.992       .  S
C2340      C2341   1.396       .  A
C2340      O2345   1.372       .  S
C2341      C2342   1.406       .  A
C2341      H2346   1.083       .  S
C2342      C2343   1.414       .  A
C2343      C2344   1.400       .  A
C2343      O2347   1.372       .  S
C2344      H2348   1.084       .  S
O2345      H2350   0.991       .  S
O2347      H2351   0.992       .  S
C2353      C2354   1.405       .  A
C2353      C2358   1.400       .  A
C2353      H2363   1.083       .  S
C2354      C2359   1.483       .  S
C2354      C2355   1.409       .  A
C2355      C2356   1.398       .  A
C2355      O2360   1.372       .  S
C2356      C2357   1.404       .  A
C2356      H2361   1.084       .  S
C2357      C2358   1.408       .  A
C2358      O2362   1.371       .  S
C2359      C2364   1.408       .  A
C2359      C2368   1.403       .  A
O2360      H2376   0.992       .  S
O2362      H2373   0.992       .  S
C2364      C2365   1.400       .  A
C2364      O2369   1.372       .  S
C2365      C2366   1.405       .  A
C2365      H2370   1.083       .  S
C2366      C2367   1.412       .  A
C2367      C2368   1.399       .  A
C2367      O2371   1.372       .  S
C2368      H2372   1.084       .  S
O2369      H2374   0.992       .  S
O2371      H2375   0.991       .  S
C2377      C2378   1.401       .  A
C2377      C2382   1.400       .  A
C2377      H2387   1.084       .  S
C2378      C2383   1.479       .  S
C2378      C2379   1.407       .  A
C2379      C2380   1.400       .  A
C2379      O2384   1.372       .  S
C2380      C2381   1.406       .  A
C2380      H2385   1.083       .  S
C2381      C2382   1.414       .  A
C2382      O2386   1.372       .  S
C2383      C2388   1.406       .  A
C2383      C2392   1.402       .  A
O2384      H2400   0.991       .  S
O2386      H2397   0.992       .  S
C2388      C2389   1.399       .  A
C2388      O2393   1.372       .  S
C2389      C2390   1.406       .  A
C2389      H2394   1.083       .  S
C2390      C2391   1.413       .  A
C2391      C2392   1.401       .  A
C2391      O2395   1.372       .  S
C2392      H2396   1.084       .  S
O2393      H2398   0.991       .  S
O2395      H2399   0.991       .  S
C2401      C2402   1.403       .  A
C2401      C2406   1.399       .  A
C2401      H2411   1.083       .  S
C2402      C2407   1.485       .  S
C2402      C2403   1.409       .  A
C2403      C2404   1.398       .  A
C2403      O2408   1.372       .  S
C2404      C2405   1.406       .  A
C2404      H2409   1.083       .  S
C2405      C2406   1.413       .  A
C2406      O2410   1.371       .  S
C2407      C2412   1.411       .  A
C2407      C2416   1.405       .  A
O2408      H2424   0.991       .  S
O2410      H2421   0.992       .  S
C2412      C2413   1.402       .  A
C2412      O2417   1.372       .  S
C2413      C2414   1.402       .  A
C2413      H2418   1.084       .  S
C2414      C2415   1.406       .  A
C2415      C2416   1.398       .  A
C2415      O2419   1.372       .  S
C2416      H2420   1.083       .  S
O2417      H2422   0.992       .  S
O2419      H2423   0.992       .  S
C2425      C2426   1.404       .  A
C2425      C2430   1.398       .  A
C2425      H2435   1.083       .  S
C2426      C2431   1.481       .  S
C2426      C2427   1.410       .  A
C2427      C2428   1.397       .  A
C2427      O2432   1.372       .  S
C2428      C2429   1.402       .  A
C2428      H2433   1.084       .  S
C2429      C2430   1.409       .  A
C2430      O2434   1.372       .  S
C2431      C2436   1.407       .  A
C2431      C2440   1.404       .  A
O2432      H2448   0.991       .  S
O2434      H2445   0.992       .  S
C2436      C2437   1.398       .  A
C2436      O2441   1.372       .  S
C2437      C2438   1.406       .  A
C2437      H2442   1.083       .  S
C2438      C2439   1.411       .  A
C2439      C2440   1.399       .  A
C2439      O2443   1.371       .  S
C2440      H2444   1.084       .  S
O2441      H2446   0.992       .  S
O2443      H2447   0.991       .  S
C2449      C2450   1.401       .  A
C2449      C2454   1.400       .  A
C2449      H2459   1.084       .  S
C2450      C2455   1.477       .  S
C2450      C2451   1.405       .  A
C2451      C2452   1.400       .  A
C2451      O2456   1.372       .  S
C2452      C2453   1.407       .  A
C2452      H2457   1.083       .  S
C2453      C2454   1.414       .  A
C2454      O2458   1.371       .  S
C2455      C2460   1.406       .  A
C2455      C2464   1.402       .  A
O2456      H2472   0.991       .  S
O2458      H2469   0.992       .  S
C2460      C2461   1.398       .  A
C2460      O2465   1.372       .  S
C2461      C2462   1.405       .  A
C2461      H2466   1.083       .  S
C2462      C2463   1.412       .  A
C2463      C2464   1.401       .  A
C2463      O2467   1.372       .  S
C2464      H2468   1.084       .  S
O2465      H2470   0.991       .  S
O2467      H2471   0.992       .  S
C2473      C2474   1.402       .  A
C2473      C2478   1.398       .  A
C2473      H2483   1.084       .  S
C2474      C2479   1.479       .  S
C2474      C2475   1.407       .  A
C2475      C2476   1.402       .  A
C2475      O2480   1.372       .  S
C2476      C2477   1.405       .  A
C2476      H2481   1.084       .  S
C2477      C2478   1.410       .  A
C2478      O2482   1.372       .  S
C2479      C2484   1.407       .  A
C2479      C2488   1.401       .  A
O2480      H2496   0.991       .  S
O2482      H2493   0.992       .  S
C2484      C2485   1.401       .  A
C2484      O2489   1.371       .  S
C2485      C2486   1.408       .  A
C2485      H2490   1.083       .  S
C2486      C2487   1.413       .  A
C2487      C2488   1.398       .  A
C2487      O2491   1.372       .  S
C2488      H2492   1.084       .  S
O2489      H2494   0.991       .  S
O2491      H2495   0.991       .  S
C2497      C2498   1.400       .  A
C2497      C2502   1.397       .  A
C2497      H2507   1.084       .  S
C2498      C2503   1.474       .  S
C2498      C2499   1.405       .  A
C2499      C2500   1.399       .  A
C2499      O2504   1.372       .  S
C2500      C2501   1.406       .  A
C2500      H2505   1.083       .  S
C2501      C2502   1.413       .  A
C2502      O2506   1.372       .  S
C2503      C2508   1.406       .  A
C2503      C2512   1.401       .  A
O2504      H2520   0.991       .  S
O2506      H2517   0.992       .  S
C2508      C2509   1.397       .  A
C2508      O2513   1.372       .  S
C2509      C2510   1.406       .  A
C2509      H2514   1.083       .  S
C2510      C2511   1.411       .  A
C2511      C2512   1.398       .  A
C2511      O2515   1.372       .  S
C2512      H2516   1.084       .  S
O2513      H2518   0.991       .  S
O2515      H2519   0.992       .  S
C2521      C2522   1.403       .  A
C2521      C2526   1.398       .  A
C2521      H2531   1.083       .  S
C2522      C2527   1.481       .  S
C2522      C2523   1.409       .  A
C2523      C2524   1.398       .  A
C2523      O2528   1.372       .  S
C2524      C2525   1.404       .  A
C2524      H2529   1.084       .  S
C2525      C2526   1.409       .  A
C2526      O2530   1.372       .  S
C2527      C2532   1.408       .  A
C2527      C2536   1.403       .  A
O2528      H2544   0.991       .  S
O2530      H2541   0.991       .  S
C2532      C2533   1.399       .  A
C2532      O2537   1.372       .  S
C2533      C2534   1.405       .  A
C2533      H2538   1.083       .  S
C2534      C2535   1.411       .  A
C2535      C2536   1.399       .  A
C2535      O2539   1.372       .  S
C2536      H2540   1.084       .  S
O2537      H2542   0.992       .  S
O2539      H2543   0.991       .  S
C2545      C2546   1.400       .  A
C2545      C2550   1.399       .  A
C2545      H2555   1.084       .  S
C2546      C2551   1.473       .  S
C2546      C2547   1.404       .  A
C2547      C2548   1.397       .  A
C2547      O2552   1.372       .  S
C2548      C2549   1.406       .  A
C2548      H2553   1.083       .  S
C2549      C2550   1.413       .  A
C2550      O2554   1.372       .  S
C2551      C2556   1.405       .  A
C2551      C2560   1.401       .  A
O2552      H2568   0.991       .  S
O2554      H2565   0.992       .  S
C2556      C2557   1.399       .  A
C2556      O2561   1.372       .  S
C2557      C2558   1.406       .  A
C2557      H2562   1.084       .  S
C2558      C2559   1.409       .  A
C2559      C2560   1.398       .  A
C2559      O2563   1.372       .  S
C2560      H2564   1.084       .  S
O2561      H2566   0.991       .  S
O2563      H2567   0.991       .  S
C2569      C2570   1.399       .  A
C2569      C2574   1.399       .  A
C2569      H2579   1.084       .  S
C2570      C2575   1.472       .  S
C2570      C2571   1.404       .  A
C2571      C2572   1.398       .  A
C2571      O2576   1.372       .  S
C2572      C2573   1.406       .  A
C2572      H2577   1.083       .  S
C2573      C2574   1.414       .  A
C2574      O2578   1.372       .  S
C2575      C2580   1.403       .  A
C2575      C2584   1.400       .  A
O2576      H2592   0.991       .  S
O2578      H2589   0.992       .  S
C2580      C2581   1.397       .  A
C2580      O2585   1.372       .  S
C2581      C2582   1.407       .  A
C2581      H2586   1.083       .  S
C2582      C2583   1.414       .  A
C2583      C2584   1.400       .  A
C2583      O2587   1.371       .  S
C2584      H2588   1.084       .  S
O2585      H2590   0.991       .  S
O2587      H2591   0.992       .  S
C2593      C2594   1.404       .  A
C2593      C2598   1.398       .  A
C2593      H2603   1.083       .  S
C2594      C2599   1.485       .  S
C2594      C2595   1.410       .  A
C2595      C2596   1.400       .  A
C2595      O2600   1.372       .  S
C2596      C2597   1.404       .  A
C2596      H2601   1.084       .  S
C2597      C2598   1.411       .  A
C2598      O2602   1.372       .  S
C2599      C2604   1.409       .  A
C2599      C2608   1.404       .  A
O2600      H2616   0.991       .  S
O2602      H2613   0.992       .  S
C2604      C2605   1.400       .  A
C2604      O2609   1.373       .  S
C2605      C2606   1.404       .  A
C2605      H2610   1.084       .  S
C2606      C2607   1.411       .  A
C2607      C2608   1.400       .  A
C2607      O2611   1.371       .  S
C2608      H2612   1.083       .  S
O2609      H2614   0.992       .  S
O2611      H2615   0.992       .  S
C2617      C2618   1.400       .  A
C2617      C2622   1.398       .  A
C2617      H2627   1.084       .  S
C2618      C2623   1.473       .  S
C2618      C2619   1.405       .  A
C2619      C2620   1.399       .  A
C2619      O2624   1.372       .  S
C2620      C2621   1.405       .  A
C2620      H2625   1.083       .  S
C2621      C2622   1.412       .  A
C2622      O2626   1.372       .  S
C2623      C2628   1.405       .  A
C2623      C2632   1.399       .  A
O2624      H2640   0.991       .  S
O2626      H2637   0.992       .  S
C2628      C2629   1.398       .  A
C2628      O2633   1.372       .  S
C2629      C2630   1.407       .  A
C2629      H2634   1.083       .  S
C2630      C2631   1.415       .  A
C2631      C2632   1.398       .  A
C2631      O2635   1.372       .  S
C2632      H2636   1.084       .  S
O2633      H2638   0.991       .  S
O2635      H2639   0.992       .  S
C2641      C2642   1.402       .  A
C2641      C2646   1.399       .  A
C2641      H2651   1.084       .  S
C2642      C2647   1.475       .  S
C2642      C2643   1.406       .  A
C2643      C2644   1.398       .  A
C2643      O2648   1.372       .  S
C2644      C2645   1.403       .  A
C2644      H2649   1.084       .  S
C2645      C2646   1.410       .  A
C2646      O2650   1.372       .  S
C2647      C2652   1.407       .  A
C2647      C2656   1.402       .  A
O2648      H2664   0.992       .  S
O2650      H2661   0.992       .  S
C2652      C2653   1.397       .  A
C2652      O2657   1.372       .  S
C2653      C2654   1.404       .  A
C2653      H2658   1.084       .  S
C2654      C2655   1.410       .  A
C2655      C2656   1.399       .  A
C2655      O2659   1.372       .  S
C2656      H2660   1.084       .  S
O2657      H2662   0.991       .  S
O2659      H2663   0.991       .  S
C2665      C2666   1.403       .  A
C2665      C2670   1.397       .  A
C2665      H2675   1.084       .  S
C2666      C2671   1.479       .  S
C2666      C2667   1.408       .  A
C2667      C2668   1.400       .  A
C2667      O2672   1.373       .  S
C2668      C2669   1.404       .  A
C2668      H2673   1.084       .  S
C2669      C2670   1.409       .  A
C2670      O2674   1.372       .  S
C2671      C2676   1.409       .  A
C2671      C2680   1.402       .  A
O2672      H2688   0.993       .  S
O2674      H2685   0.992       .  S
C2676      C2677   1.398       .  A
C2676      O2681   1.371       .  S
C2677      C2678   1.404       .  A
C2677      H2682   1.083       .  S
C2678      C2679   1.412       .  A
C2679      C2680   1.397       .  A
C2679      O2683   1.372       .  S
C2680      H2684   1.084       .  S
O2681      H2686   0.991       .  S
O2683      H2687   0.992       .  S
C2689      C2690   1.401       .  A
C2689      C2694   1.401       .  A
C2689      H2699   1.084       .  S
C2690      C2695   1.473       .  S
C2690      C2691   1.403       .  A
C2691      C2692   1.396       .  A
C2691      O2696   1.372       .  S
C2692      C2693   1.406       .  A
C2692      H2697   1.083       .  S
C2693      C2694   1.413       .  A
C2694      O2698   1.371       .  S
C2695      C2700   1.405       .  A
C2695      C2704   1.400       .  A
O2696      H2712   0.991       .  S
O2698      H2709   0.992       .  S
C2700      C2701   1.397       .  A
C2700      O2705   1.372       .  S
C2701      C2702   1.406       .  A
C2701      H2706   1.083       .  S
C2702      C2703   1.413       .  A
C2703      C2704   1.399       .  A
C2703      O2707   1.371       .  S
C2704      H2708   1.084       .  S
O2705      H2710   0.991       .  S
O2707      H2711   0.992       .  S
C2713      C2714   1.399       .  A
C2713      C2718   1.400       .  A
C2713      H2723   1.084       .  S
C2714      C2719   1.470       .  S
C2714      C2715   1.403       .  A
C2715      C2716   1.397       .  A
C2715      O2720   1.372       .  S
C2716      C2717   1.407       .  A
C2716      H2721   1.083       .  S
C2717      C2718   1.413       .  A
C2718      O2722   1.371       .  S
C2719      C2724   1.403       .  A
C2719      C2728   1.399       .  A
O2720      H2736   0.991       .  S
O2722      H2733   0.992       .  S
C2724      C2725   1.398       .  A
C2724      O2729   1.372       .  S
C2725      C2726   1.407       .  A
C2725      H2730   1.083       .  S
C2726      C2727   1.414       .  A
C2727      C2728   1.399       .  A
C2727      O2731   1.371       .  S
C2728      H2732   1.084       .  S
O2729      H2734   0.991       .  S
O2731      H2735   0.992       .  S
C2737      C2738   1.402       .  A
C2737      C2742   1.401       .  A
C2737      H2747   1.084       .  S
C2738      C2743   1.480       .  S
C2738      C2739   1.406       .  A
C2739      C2740   1.400       .  A
C2739      O2744   1.373       .  S
C2740      C2741   1.406       .  A
C2740      H2745   1.083       .  S
C2741      C2742   1.414       .  A
C2742      O2746   1.371       .  S
C2743      C2748   1.407       .  A
C2743      C2752   1.402       .  A
O2744      H2760   0.992       .  S
O2746      H2757   0.992       .  S
C2748      C2749   1.397       .  A
C2748      O2753   1.372       .  S
C2749      C2750   1.405       .  A
C2749      H2754   1.083       .  S
C2750      C2751   1.413       .  A
C2751      C2752   1.401       .  A
C2751      O2755   1.372       .  S
C2752      H2756   1.084       .  S
O2753      H2758   0.992       .  S
O2755      H2759   0.991       .  S
C2761      C2762   1.403       .  A
C2761      C2766   1.401       .  A
C2761      H2771   1.084       .  S
C2762      C2767   1.476       .  S
C2762      C2763   1.406       .  A
C2763      C2764   1.399       .  A
C2763      O2768   1.372       .  S
C2764      C2765   1.404       .  A
C2764      H2769   1.084       .  S
C2765      C2766   1.410       .  A
C2766      O2770   1.372       .  S
C2767      C2772   1.405       .  A
C2767      C2776   1.402       .  A
O2768      H2784   0.991       .  S
O2770      H2781   0.992       .  S
C2772      C2773   1.398       .  A
C2772      O2777   1.372       .  S
C2773      C2774   1.407       .  A
C2773      H2778   1.084       .  S
C2774      C2775   1.411       .  A
C2775      C2776   1.401       .  A
C2775      O2779   1.371       .  S
C2776      H2780   1.084       .  S
O2777      H2782   0.991       .  S
O2779      H2783   0.992       .  S
C2785      C2786   1.402       .  A
C2785      C2790   1.398       .  A
C2785      H2795   1.083       .  S
C2786      C2791   1.480   1_565  S
C2786      C2787   1.408       .  A
C2787      C2788   1.398       .  A
C2787      O2792   1.372       .  S
C2788      C2789   1.406       .  A
C2788      H2793   1.083       .  S
C2789      C2790   1.413       .  A
C2790      O2794   1.371       .  S
C2791      C2796   1.409       .  A
C2791      C2800   1.404       .  A
O2792      H2808   0.991       .  S
O2794      H2805   0.991       .  S
C2796      C2797   1.399       .  A
C2796      O2801   1.372       .  S
C2797      C2798   1.402       .  A
C2797      H2802   1.084       .  S
C2798      C2799   1.406       .  A
C2799      C2800   1.397       .  A
C2799      O2803   1.372       .  S
C2800      H2804   1.084       .  S
O2801      H2806   0.992       .  S
O2803      H2807   0.992       .  S
C2809      C2810   1.400       .  A
C2809      C2814   1.401       .  A
C2809      H2819   1.084       .  S
C2810      C2815   1.473       .  S
C2810      C2811   1.404       .  A
C2811      C2812   1.399       .  A
C2811      O2816   1.372       .  S
C2812      C2813   1.407       .  A
C2812      H2817   1.083       .  S
C2813      C2814   1.413       .  A
C2814      O2818   1.371       .  S
C2815      C2820   1.404       .  A
C2815      C2824   1.399       .  A
O2816      H2832   0.992       .  S
O2818      H2829   0.992       .  S
C2820      C2821   1.400       .  A
C2820      O2825   1.371       .  S
C2821      C2822   1.408       .  A
C2821      H2826   1.083       .  S
C2822      C2823   1.414       .  A
C2823      C2824   1.399       .  A
C2823      O2827   1.371       .  S
C2824      H2828   1.084       .  S
O2825      H2830   0.992       .  S
O2827      H2831   0.992       .  S
C2833      C2834   1.400       .  A
C2833      C2838   1.400       .  A
C2833      H2843   1.084       .  S
C2834      C2839   1.473       .  S
C2834      C2835   1.405       .  A
C2835      C2836   1.399       .  A
C2835      O2840   1.372       .  S
C2836      C2837   1.406       .  A
C2836      H2841   1.084       .  S
C2837      C2838   1.412       .  A
C2838      O2842   1.372       .  S
C2839      C2844   1.404       .  A
C2839      C2848   1.401       .  A
O2840      H2856   0.992       .  S
O2842      H2853   0.992       .  S
C2844      C2845   1.397       .  A
C2844      O2849   1.372       .  S
C2845      C2846   1.406       .  A
C2845      H2850   1.083       .  S
C2846      C2847   1.413       .  A
C2847      C2848   1.402       .  A
C2847      O2851   1.372       .  S
C2848      H2852   1.084       .  S
O2849      H2854   0.991       .  S
O2851      H2855   0.992       .  S
C2857      C2858   1.404       .  A
C2857      C2862   1.398       .  A
C2857      H2867   1.084       .  S
C2858      C2863   1.482   1_455  S
C2858      C2859   1.409       .  A
C2859      C2860   1.401       .  A
C2859      O2864   1.373       .  S
C2860      C2861   1.403       .  A
C2860      H2865   1.084       .  S
C2861      C2862   1.409       .  A
C2862      O2866   1.372       .  S
C2863      C2868   1.409       .  A
C2863      C2872   1.403       .  A
O2864      H2880   0.993       .  S
O2866      H2877   0.992       .  S
C2868      C2869   1.399       .  A
C2868      O2873   1.371       .  S
C2869      C2870   1.406       .  A
C2869      H2874   1.083       .  S
C2870      C2871   1.411       .  A
C2871      C2872   1.398       .  A
C2871      O2875   1.372       .  S
C2872      H2876   1.084       .  S
O2873      H2878   0.991       .  S
O2875      H2879   0.992       .  S
C2881      C2882   1.402       .  A
C2881      C2886   1.397       .  A
C2881      H2891   1.084       .  S
C2882      C2887   1.479       .  S
C2882      C2883   1.408       .  A
C2883      C2884   1.399       .  A
C2883      O2888   1.372       .  S
C2884      C2885   1.405       .  A
C2884      H2889   1.083       .  S
C2885      C2886   1.411       .  A
C2886      O2890   1.372       .  S
C2887      C2892   1.406       .  A
C2887      C2896   1.403       .  A
O2888      H2904   0.991       .  S
O2890      H2901   0.992       .  S
C2892      C2893   1.396       .  A
C2892      O2897   1.372       .  S
C2893      C2894   1.406       .  A
C2893      H2898   1.083       .  S
C2894      C2895   1.412       .  A
C2895      C2896   1.400       .  A
C2895      O2899   1.371       .  S
C2896      H2900   1.084       .  S
O2897      H2902   0.991       .  S
O2899      H2903   0.991       .  S
C2905      C2906   1.400       .  A
C2905      C2910   1.396       .  A
C2905      H2915   1.084       .  S
C2906      C2911   1.475       .  S
C2906      C2907   1.407       .  A
C2907      C2908   1.400       .  A
C2907      O2912   1.372       .  S
C2908      C2909   1.406       .  A
C2908      H2913   1.083       .  S
C2909      C2910   1.413       .  A
C2910      O2914   1.372       .  S
C2911      C2916   1.405       .  A
C2911      C2920   1.401       .  A
O2912      H2928   0.991       .  S
O2914      H2925   0.991       .  S
C2916      C2917   1.398       .  A
C2916      O2921   1.372       .  S
C2917      C2918   1.406       .  A
C2917      H2922   1.083       .  S
C2918      C2919   1.413       .  A
C2919      C2920   1.399       .  A
C2919      O2923   1.371       .  S
C2920      H2924   1.084       .  S
O2921      H2926   0.992       .  S
O2923      H2927   0.992       .  S
C2929      C2930   1.404       .  A
C2929      C2934   1.398       .  A
C2929      H2939   1.084       .  S
C2930      C2935   1.480   1_455  S
C2930      C2931   1.408       .  A
C2931      C2932   1.399       .  A
C2931      O2936   1.373       .  S
C2932      C2933   1.403       .  A
C2932      H2937   1.084       .  S
C2933      C2934   1.408       .  A
C2934      O2938   1.372       .  S
C2935      C2940   1.409       .  A
C2935      C2944   1.401       .  A
O2936      H2952   0.993       .  S
O2938      H2949   0.992       .  S
C2940      C2941   1.399       .  A
C2940      O2945   1.372       .  S
C2941      C2942   1.405       .  A
C2941      H2946   1.084       .  S
C2942      C2943   1.411       .  A
C2943      C2944   1.395       .  A
C2943      O2947   1.372       .  S
C2944      H2948   1.084       .  S
O2945      H2950   0.991       .  S
O2947      H2951   0.992       .  S
C2953      C2954   1.403       .  A
C2953      C2958   1.397       .  A
C2953      H2963   1.083       .  S
C2954      C2959   1.482   1_545  S
C2954      C2955   1.409       .  A
C2955      C2956   1.400       .  A
C2955      O2960   1.372       .  S
C2956      C2957   1.405       .  A
C2956      H2961   1.084       .  S
C2957      C2958   1.411       .  A
C2958      O2962   1.372       .  S
C2959      C2964   1.408       .  A
C2959      C2968   1.404       .  A
O2960      H2976   0.991       .  S
O2962      H2973   0.992       .  S
C2964      C2965   1.399       .  A
C2964      O2969   1.372       .  S
C2965      C2966   1.404       .  A
C2965      H2970   1.084       .  S
C2966      C2967   1.409       .  A
C2967      C2968   1.399       .  A
C2967      O2971   1.372       .  S
C2968      H2972   1.084       .  S
O2969      H2974   0.992       .  S
O2971      H2975   0.992       .  S
