geometry optimzed in LAMMPS
_audit_creation_date              2020-11-30 
_audit_creation_method            'lammps2cif' 
_symmetry_space_group_name_H-M    'P1' 
_symmetry_Int_Tables_number       1 
_symmetry_cell_setting            triclinic 
loop_ 
_symmetry_equiv_pos_as_xyz 
  x,y,z 
_cell_length_a                    44.26587871 
_cell_length_b                    44.31574219176074 
_cell_length_c                    31.848515015816567 
_cell_angle_alpha                 89.994581819744 
_cell_angle_beta                  89.98062196932936 
_cell_angle_gamma                 119.97911170364443 
loop_ 
_atom_site_label 
_atom_site_type_symbol 
_atom_site_fract_x 
_atom_site_fract_y 
_atom_site_fract_z 
_atom_site_charge 
Fe1        Fe  0.20155052  0.74926462  0.16449247     1.65800
Fe2        Fe  0.24739740  0.79420216  0.24884383     1.73200
Fe3        Fe  0.18626038  0.80988095  0.20795570     1.54400
O4          O  0.18284152  0.81065637  0.14202730    -0.81000
O5          O  0.21239967  0.78392318  0.29640525    -0.79300
O6          O  0.21088160  0.78432104  0.11718130    -0.83500
O7          O  0.14824720  0.73238030  0.16336817    -0.78300
O8          O  0.23182977  0.85724802  0.20607970    -0.80100
O9          O  0.23618838  0.74257985  0.25190078    -0.82900
C10         C  0.12780787  0.73837010  0.18544091     0.97900
C11         C  0.19590586  0.80205032  0.11175628     1.05300
O12         O  0.21178173  0.78456366  0.20699604    -1.11800
O13         O  0.28463809  0.80474862  0.20381288    -0.74300
O14         O  0.25344029  0.76097136  0.15995376    -0.77800
O15         O  0.13915403  0.76429778  0.21011563    -0.78400
C16         C  0.28266155  0.78445822  0.17447901     0.96800
O17         O  0.19150006  0.71177425  0.20897635    -0.76400
O18         O  0.26389003  0.84725685  0.25169622    -0.81600
C19         C  0.19397167  0.79798604  0.30325892     0.99400
C20         C  0.25758488  0.86810750  0.23105063     1.05400
O21         O  0.18564749  0.81220165  0.27405264    -0.77200
C22         C  0.21235723  0.71359944  0.23742852     1.03700
Fe23       Fe  0.20025497  0.75042945  0.66727304     1.65800
Fe24       Fe  0.24522363  0.79508287  0.75237807     1.73200
Fe25       Fe  0.18711868  0.81358271  0.70772241     1.54400
O26         O  0.18590545  0.81522548  0.64164047    -0.81000
O27         O  0.20927298  0.78555342  0.79835948    -0.79300
O28         O  0.21038966  0.78481141  0.61923722    -0.83500
O29         O  0.14724974  0.73432389  0.66577805    -0.78300
O30         O  0.23395486  0.85992644  0.70680981    -0.80100
O31         O  0.23305809  0.74313360  0.75642572    -0.82900
C32         C  0.12702227  0.74212093  0.68544572     0.97900
C33         C  0.19848985  0.80508108  0.61242595     1.05300
O34         O  0.21076132  0.78632651  0.70905285    -1.11800
O35         O  0.28287074  0.80458310  0.70853232    -0.74300
O36         O  0.25177992  0.76177000  0.66336372    -0.77800
O37         O  0.13860010  0.76921850  0.70825254    -0.78400
C38         C  0.28087772  0.78483172  0.67849347     0.96800
O39         O  0.18974877  0.71296382  0.71184955    -0.76400
O40         O  0.26325313  0.84864004  0.75510130    -0.81600
C41         C  0.19163782  0.80064226  0.80369414     0.99400
C42         C  0.25887606  0.87005065  0.73285692     1.05400
O43         O  0.18495290  0.81562997  0.77378380    -0.77200
C44         C  0.20981064  0.71425714  0.74103540     1.03700
Fe45       Fe  0.20431504  0.45418959  0.41488270     1.65800
Fe46       Fe  0.25142396  0.45544080  0.33094473     1.73200
Fe47       Fe  0.18899000  0.37820751  0.37128348     1.54400
O48         O  0.18614791  0.37368758  0.43721160    -0.81000
O49         O  0.21842379  0.42943868  0.28210369    -0.79300
O50         O  0.21310841  0.42800262  0.46190581    -0.83500
O51         O  0.15091115  0.41813862  0.41479747    -0.78300
O52         O  0.23406372  0.37598594  0.37340333    -0.80100
O53         O  0.23742629  0.49374963  0.32428668    -0.82900
C54         C  0.13056205  0.39185880  0.39252064     0.97900
C55         C  0.19999893  0.39547243  0.46718345     1.05300
O56         O  0.21498500  0.42928446  0.37227364    -1.11800
O57         O  0.28796710  0.48454145  0.37583415    -0.74300
O58         O  0.25585132  0.49429202  0.42138492    -0.77800
O59         O  0.14189935  0.37676299  0.36875245    -0.78400
C60         C  0.28534467  0.50145759  0.40637776     0.96800
O61         O  0.19529961  0.48236350  0.37052850    -0.76400
O62         O  0.26997100  0.42029490  0.33239295    -0.81600
C63         C  0.19840091  0.39716300  0.27584123     0.99400
C64         C  0.26197151  0.39226568  0.35224520     1.05400
O65         O  0.18815809  0.37485119  0.30543673    -0.77200
C66         C  0.21392538  0.49928773  0.33934616     1.03700
Fe67       Fe  0.20540081  0.45603324  0.91071680     1.65800
Fe68       Fe  0.25146288  0.45433583  0.82798859     1.73200
Fe69       Fe  0.18938025  0.37891182  0.87114698     1.54400
O70         O  0.18523149  0.37633011  0.93715457    -0.81000
O71         O  0.21752133  0.42802852  0.78041701    -0.79300
O72         O  0.21480900  0.43134612  0.95904956    -0.83500
O73         O  0.15202409  0.41940902  0.91219549    -0.78300
O74         O  0.23461737  0.37748372  0.87675339    -0.80100
O75         O  0.23953861  0.49409082  0.82077403    -0.82900
C76         C  0.13130768  0.39243561  0.89106873     0.97900
C77         C  0.19976217  0.39887413  0.96625040     1.05300
O78         O  0.21534627  0.42977737  0.86979890    -1.11800
O79         O  0.28827007  0.48291006  0.87211242    -0.74300
O80         O  0.25732304  0.49652858  0.91500435    -0.77800
O81         O  0.14244351  0.37758672  0.86647713    -0.78400
C82         C  0.28645013  0.50211667  0.90021503     0.96800
O83         O  0.19579671  0.48254266  0.86455623    -0.76400
O84         O  0.26853225  0.41818023  0.83056470    -0.81600
C85         C  0.19918315  0.39546587  0.77487540     0.99400
C86         C  0.26191699  0.39248059  0.85440303     1.05400
O87         O  0.19001434  0.37380647  0.80521564    -0.77200
C88         C  0.21603754  0.50006593  0.83473055     1.03700
Fe89       Fe  0.54694752  0.79859264  0.99828294     1.65800
Fe90       Fe  0.54423561  0.75045851  0.08159626     1.73200
Fe91       Fe  0.62258151  0.81223438  0.04308392     1.54400
O92         O  0.62753163  0.81331600  0.97744598    -0.81000
O93         O  0.56878144  0.78352495  0.13061601    -0.79300
O94         O  0.57365288  0.79054173  0.95120070    -0.83500
O95         O  0.58324420  0.85193085  0.99870114    -0.78300
O96         O  0.62456300  0.76678859  0.04417116    -0.80100
O97         O  0.50504180  0.76307996  0.08591826    -0.82900
C98         C  0.61127963  0.87206022  0.01835440     0.97900
C99         C  0.60605066  0.80192949  0.94687474     1.05300
O100        O  0.57142746  0.78722610  0.04099876    -1.11800
O101        O  0.51755650  0.71467921  0.03531362    -0.74300
O102        O  0.50717321  0.74693799  0.99058333    -0.77800
O103        O  0.62613794  0.86035195  0.04202265    -0.78400
C104        C  0.50103205  0.71742877  0.00440253     0.96800
O105        O  0.51802738  0.80720578  0.04257793    -0.76400
O106        O  0.57911894  0.73208671  0.08406355    -0.81600
C107        C  0.60086488  0.80424788  0.13776887     0.99400
C108        C  0.60769265  0.73952349  0.06627821     1.05400
O109        O  0.62407168  0.81453883  0.10907384    -0.77200
C110        C  0.49986858  0.78705910  0.07214186     1.03700
Fe111      Fe  0.54305132  0.80186318  0.50484975     1.65800
Fe112      Fe  0.54320510  0.75259014  0.58467014     1.73200
Fe113      Fe  0.61979752  0.81381335  0.54286980     1.54400
O114        O  0.62236132  0.81646558  0.47676804    -0.81000
O115        O  0.56883538  0.78587545  0.63354330    -0.79300
O116        O  0.56733675  0.79413015  0.45516293    -0.83500
O117        O  0.57961137  0.85503107  0.50571019    -0.78300
O118        O  0.62069821  0.76781933  0.53930698    -0.80100
O119        O  0.50304552  0.76369987  0.59107480    -0.82900
C120        C  0.60774247  0.87443660  0.52560027     0.97900
C121        C  0.59925550  0.80475897  0.44789057     1.05300
O122        O  0.56888232  0.78958938  0.54407992    -1.11800
O123        O  0.51620951  0.71737209  0.53780081    -0.74300
O124        O  0.50244919  0.75019452  0.49823096    -0.77800
O125        O  0.62343588  0.86197936  0.54645607    -0.78400
C126        C  0.49763748  0.72052025  0.50971075     0.96800
O127        O  0.51691237  0.81035982  0.55212821    -0.76400
O128        O  0.57893412  0.73519596  0.58467807    -0.81600
C129        C  0.60154408  0.80421596  0.63895391     0.99400
C130        C  0.60551369  0.74133309  0.56303108     1.05400
O131        O  0.62342661  0.81364155  0.60875964    -0.77200
C132        C  0.49799456  0.78828484  0.57953657     1.03700
Fe133      Fe  0.79458183  0.25054965  0.40745023     1.65800
Fe134      Fe  0.74905103  0.20670644  0.49245352     1.73200
Fe135      Fe  0.81415831  0.19475812  0.45642132     1.54400
O136        O  0.81729762  0.19102032  0.39060795    -0.81000
O137        O  0.78307563  0.21968611  0.54151521    -0.79300
O138        O  0.78702617  0.21416199  0.36307988    -0.83500
O139        O  0.84858952  0.27006213  0.40664294    -0.78300
O140        O  0.77086202  0.14570978  0.45700117    -0.80100
O141        O  0.75798744  0.25773735  0.49304331    -0.82900
C142        C  0.86981143  0.26639046  0.43019445     0.97900
C143        C  0.80274829  0.19698504  0.35954597     1.05300
O144        O  0.78594863  0.21722622  0.45214534    -1.11800
O145        O  0.71245037  0.19292504  0.44616604    -0.74300
O146        O  0.74198988  0.23633755  0.40141153    -0.77800
O147        O  0.85952515  0.24192935  0.45679615    -0.78400
C148        C  0.71332000  0.21188930  0.41595971     0.96800
O149        O  0.80226917  0.28872032  0.44958513    -0.76400
O150        O  0.73471236  0.15432250  0.49730714    -0.81600
C151        C  0.80394705  0.20883210  0.55027033     0.99400
C152        C  0.74360503  0.13422139  0.47947515     1.05400
O153        O  0.81487170  0.19573666  0.52254276    -0.77200
C154        C  0.78127797  0.28681930  0.47796959     1.03700
Fe155      Fe  0.79711686  0.25613259  0.91771070     1.65800
Fe156      Fe  0.74891784  0.20591372  0.99760226     1.73200
Fe157      Fe  0.81290493  0.19441787  0.95641817     1.54400
O158        O  0.81601632  0.19537775  0.89009978    -0.81000
O159        O  0.78198888  0.21411904  0.04657159    -0.79300
O160        O  0.78880762  0.22354898  0.86837070    -0.83500
O161        O  0.85042085  0.27344946  0.91607908    -0.78300
O162        O  0.76845726  0.14637798  0.95249526    -0.80100
O163        O  0.75940205  0.25721552  0.00487317    -0.82900
C164        C  0.87090521  0.26661998  0.93664658     0.97900
C165        C  0.80244479  0.20480879  0.86115055     1.05300
O166        O  0.78637002  0.21868951  0.95727507    -1.11800
O167        O  0.71355406  0.19708170  0.95093636    -0.74300
O168        O  0.74533086  0.24429691  0.91234092    -0.77800
O169        O  0.85972635  0.24033530  0.96060247    -0.78400
C170        C  0.71597796  0.21874578  0.92326645     0.96800
O171        O  0.80584885  0.29069440  0.96547013    -0.76400
O172        O  0.73302110  0.15280735  0.99638600    -0.81600
C173        C  0.80222143  0.20198121  0.05236266     0.99400
C174        C  0.74130751  0.13358090  0.97530015     1.05400
O175        O  0.81282377  0.19044183  0.02237721    -0.77200
C176        C  0.78425139  0.28706813  0.99395836     1.03700
Fe177      Fe  0.79335635  0.54659943  0.17365107     1.65800
Fe178      Fe  0.74519236  0.54435088  0.09110988     1.73200
Fe179      Fe  0.80902491  0.62186980  0.12794495     1.54400
O180        O  0.81316867  0.62715434  0.19383715    -0.81000
O181        O  0.77720180  0.56846500  0.04108481    -0.79300
O182        O  0.78412096  0.57316601  0.21976780    -0.83500
O183        O  0.84641728  0.58324050  0.17435518    -0.78300
O184        O  0.76423506  0.62501722  0.13099773    -0.80100
O185        O  0.75848518  0.50550120  0.08593471    -0.82900
C186        C  0.86685864  0.60840959  0.15077636     0.97900
C187        C  0.79913076  0.60596888  0.22443139     1.05300
O188        O  0.78249362  0.57102002  0.13073780    -1.11800
O189        O  0.70974620  0.51737835  0.13760808    -0.74300
O190        O  0.74218338  0.50549876  0.17981202    -0.77800
O191        O  0.85569136  0.62214685  0.12460866    -0.78400
C192        C  0.71256145  0.49894390  0.16601257     0.96800
O193        O  0.80289648  0.51877575  0.12929142    -0.76400
O194        O  0.72741368  0.57994726  0.09164876    -0.81600
C195        C  0.79750921  0.60041529  0.03328621     0.99400
C196        C  0.73571491  0.60821013  0.11099165     1.05400
O197        O  0.80856618  0.62370832  0.06182766    -0.77200
C198        C  0.78279640  0.50065032  0.09965668     1.03700
Fe199      Fe  0.79269514  0.54380308  0.65899510     1.65800
Fe200      Fe  0.74604914  0.54775267  0.57773816     1.73200
Fe201      Fe  0.80475389  0.62241841  0.62663561     1.54400
O202        O  0.80450183  0.62166492  0.69276284    -0.81000
O203        O  0.78146679  0.57663944  0.53234442    -0.79300
O204        O  0.78587630  0.56656006  0.71103798    -0.83500
O205        O  0.84617490  0.57969759  0.65837349    -0.78300
O206        O  0.75814346  0.62258084  0.62807627    -0.80100
O207        O  0.75779942  0.50854277  0.56755413    -0.82900
C208        C  0.86584913  0.60997921  0.64319347     0.97900
C209        C  0.79493293  0.59773252  0.72039755     1.05300
O210        O  0.78122773  0.57144896  0.62140842    -1.11800
O211        O  0.70882123  0.51704987  0.62102781    -0.74300
O212        O  0.74030385  0.50448333  0.66496759    -0.77800
O213        O  0.85362920  0.62746776  0.62594038    -0.78400
C214        C  0.71102291  0.49905080  0.65068888     0.96800
O215        O  0.80096504  0.51814258  0.61053297    -0.76400
O216        O  0.72784487  0.58275073  0.57966229    -0.81600
C217        C  0.80101098  0.60940495  0.52950266     0.99400
C218        C  0.73293229  0.60840791  0.60236905     1.05400
O219        O  0.80851173  0.62982737  0.56097107    -0.77200
C220        C  0.78107591  0.50193926  0.58004317     1.03700
Fe221      Fe  0.44738277  0.20049925  0.25518887     1.65800
Fe222      Fe  0.45247726  0.24822273  0.34017641     1.73200
Fe223      Fe  0.37321661  0.18783179  0.30200230     1.54400
O224        O  0.36673422  0.18444393  0.23635891    -0.81000
O225        O  0.42680478  0.21616158  0.38983573    -0.79300
O226        O  0.42045782  0.20998311  0.20967630    -0.83500
O227        O  0.41024825  0.14787572  0.25644758    -0.78300
O228        O  0.37340756  0.23442441  0.30006079    -0.80100
O229        O  0.48962991  0.23254021  0.34500321    -0.82900
C230        C  0.38385427  0.12776950  0.27864646     0.97900
C231        C  0.38787669  0.19763587  0.20568763     1.05300
O232        O  0.42436104  0.21210342  0.29935085    -1.11800
O233        O  0.48101276  0.28397609  0.29431255    -0.74300
O234        O  0.48830037  0.25121348  0.24721335    -0.77800
O235        O  0.36964552  0.13942301  0.30361144    -0.78400
C236        C  0.49637852  0.28079662  0.26246468     0.96800
O237        O  0.47628135  0.19070258  0.29767811    -0.76400
O238        O  0.41899435  0.26851835  0.34072288    -0.81600
C239        C  0.39442508  0.19783801  0.39717601     0.99400
C240        C  0.39140048  0.26217835  0.32103584     1.05400
O241        O  0.37163682  0.18793145  0.36807778    -0.77200
C242        C  0.49417425  0.20886119  0.32864994     1.03700
Fe243      Fe  0.45011323  0.20434150  0.75482140     1.65800
Fe244      Fe  0.45350525  0.25175615  0.83878379     1.73200
Fe245      Fe  0.37538085  0.18842601  0.80241199     1.54400
O246        O  0.36888293  0.18457174  0.73648156    -0.81000
O247        O  0.43014029  0.21895611  0.88844707    -0.79300
O248        O  0.42260082  0.21317642  0.70967612    -0.83500
O249        O  0.41390642  0.15079437  0.75519249    -0.78300
O250        O  0.37246799  0.23311542  0.80081134    -0.80100
O251        O  0.49332001  0.23974330  0.84134213    -0.82900
C252        C  0.38849625  0.13032353  0.77868382     0.97900
C253        C  0.38980429  0.19876448  0.70567241     1.05300
O254        O  0.42627485  0.21484300  0.79879828    -1.11800
O255        O  0.47948814  0.28804409  0.79247494    -0.74300
O256        O  0.49017669  0.25612731  0.74778119    -0.77800
O257        O  0.37472783  0.14171190  0.80451941    -0.78400
C258        C  0.49667187  0.28563268  0.76207449     0.96800
O259        O  0.47933303  0.19541763  0.79767660    -0.76400
O260        O  0.41723629  0.26841601  0.84152222    -0.81600
C261        C  0.39802458  0.20036694  0.89720278     0.99400
C262        C  0.38868585  0.26036615  0.82306394     1.05400
O263        O  0.37458632  0.18912250  0.86871228    -0.77200
C264        C  0.49829574  0.21588181  0.82648369     1.03700
C265        C  0.38776573  0.22374251  0.59335696    -0.27500
C266        C  0.36741297  0.19095010  0.57477086     0.06100
C267        C  0.34940900  0.16150242  0.60061587     0.25700
C268        C  0.35370842  0.16465611  0.64439588    -0.12000
C269        C  0.37649232  0.19710595  0.66266934    -0.25900
C270        C  0.39239153  0.22685828  0.63690110     0.36500
C271        C  0.37038438  0.18734092  0.52896896     0.06100
F272        F  0.32990984  0.12945098  0.58331975    -0.19700
H273        H  0.34167184  0.14135972  0.66359503     0.15900
F274        F  0.41424797  0.25864059  0.65367320    -0.23400
H275        H  0.40194866  0.24666152  0.57385415     0.17700
C276        C  0.34774999  0.18990088  0.50014660     0.25700
C277        C  0.35413537  0.19074495  0.45678154    -0.12000
C278        C  0.38353037  0.18969601  0.44177661    -0.26000
C279        C  0.40526908  0.18576006  0.47088902     0.36600
C280        C  0.39860430  0.18448180  0.51393235    -0.27600
F281        F  0.32054171  0.19319152  0.51399040    -0.19700
H282        H  0.33731332  0.19429420  0.43510764     0.15900
F283        F  0.43365898  0.18421527  0.45779266    -0.23500
H284        H  0.41632526  0.18257021  0.53579725     0.17800
C285        C  0.38812996  0.22705492  0.09533888    -0.27500
C286        C  0.36726932  0.19511885  0.07490670     0.06100
C287        C  0.34713223  0.16513005  0.09932957     0.25700
C288        C  0.35096148  0.16660029  0.14325437    -0.12000
C289        C  0.37495094  0.19792459  0.16300078    -0.25900
C290        C  0.39205929  0.22848314  0.13890880     0.36500
C291        C  0.37287025  0.19269277  0.02929972     0.06100
F292        F  0.32666001  0.13389374  0.08056621    -0.19700
H293        H  0.33766521  0.14272743  0.16130188     0.15900
F294        F  0.41468011  0.25929791  0.15727991    -0.23400
H295        H  0.40359396  0.25052225  0.07714414     0.17700
C296        C  0.34606856  0.18133536  0.99926644     0.25700
C297        C  0.35379509  0.18205347  0.95619925    -0.12000
C298        C  0.38828063  0.19386170  0.94258728    -0.26000
C299        C  0.41449443  0.20344460  0.97333427     0.36600
C300        C  0.40677561  0.20295653  0.01580411    -0.27600
F301        F  0.31292308  0.17113355  0.01133986    -0.19700
H302        H  0.33306958  0.17468092  0.93348996     0.15900
F303        F  0.44807583  0.21429902  0.96259670    -0.23500
H304        H  0.42768856  0.21116961  0.03848043     0.17800
C305        C  0.61808119  0.42333225  0.65873996    -0.27500
C306        C  0.61689569  0.41202632  0.70012749     0.06100
C307        C  0.64642367  0.43024050  0.72587944     0.25700
C308        C  0.67691563  0.45871624  0.70990157    -0.12000
C309        C  0.67822908  0.46996200  0.66827903    -0.25900
C310        C  0.64820296  0.45216101  0.64300271     0.36500
C311        C  0.58543402  0.38010818  0.71525508     0.06100
F312        F  0.64615123  0.41973275  0.76597918    -0.19700
H313        H  0.69956273  0.47193137  0.73004807     0.15900
F314        F  0.64833824  0.46164542  0.60244371    -0.23400
H315        H  0.59562446  0.40953625  0.63842100     0.17700
C316        C  0.56514143  0.38137562  0.74834977     0.25700
C317        C  0.53576872  0.35080576  0.76244869    -0.12000
C318        C  0.52617339  0.31823960  0.74413017    -0.26000
C319        C  0.54650424  0.31729283  0.71053732     0.36600
C320        C  0.57557759  0.34795292  0.69621014    -0.27600
F321        F  0.57358645  0.41221532  0.76680545    -0.19700
H322        H  0.52087743  0.35263582  0.78831253     0.15900
F323        F  0.53882229  0.28676153  0.69183789    -0.23500
H324        H  0.59092864  0.34652199  0.67059688     0.17800
C325        C  0.80505912  0.63932112  0.92507862    -0.27500
C326        C  0.80878685  0.61516325  0.90021075     0.06100
C327        C  0.81462094  0.59018889  0.92009152     0.25700
C328        C  0.81352035  0.58741630  0.96377054    -0.12000
C329        C  0.80714799  0.60976401  0.98871003    -0.25900
C330        C  0.80425068  0.63670485  0.96913853     0.36500
C331        C  0.80284032  0.61317190  0.85410392     0.06100
F332        F  0.81973078  0.56731512  0.89710011    -0.19700
H333        H  0.81605307  0.56662478  0.97815489     0.15900
F334        F  0.79752252  0.65841139  0.99223772    -0.23400
H335        H  0.80059902  0.65878718  0.91035927     0.17700
C336        C  0.77692812  0.58183212  0.83630980     0.25700
C337        C  0.77322226  0.57811162  0.79286996    -0.12000
C338        C  0.79516820  0.60546310  0.76584214    -0.26000
C339        C  0.81980155  0.63765722  0.78356329     0.36600
C340        C  0.82346623  0.64143867  0.82747526    -0.27600
F341        F  0.75559717  0.55437129  0.86104592    -0.19700
H342        H  0.75376190  0.55315982  0.78026513     0.15900
F343        F  0.84183591  0.66459393  0.75865222    -0.23500
H344        H  0.84343401  0.66587400  0.84061924     0.17800
C345        C  0.82842642  0.61283873  0.41717250    -0.27500
C346        C  0.81902327  0.63606464  0.39988564     0.06100
C347        C  0.80957611  0.65513889  0.42674245     0.25700
C348        C  0.80724887  0.64910139  0.47023183    -0.12000
C349        C  0.81363264  0.62348405  0.48704102    -0.25900
C350        C  0.82559699  0.60640243  0.46032083     0.36500
C351        C  0.81240842  0.63435027  0.35425725     0.06100
F352        F  0.80001618  0.67747347  0.41061331    -0.19700
H353        H  0.79755844  0.66218589  0.49020908     0.15900
F354        F  0.83223601  0.58170267  0.47564180    -0.23400
H355        H  0.83547178  0.59773569  0.39681072     0.17700
C356        C  0.83894546  0.65457704  0.32543198     0.25700
C357        C  0.83353093  0.64727671  0.28227541    -0.12000
C358        C  0.80188336  0.61927362  0.26769981    -0.26000
C359        C  0.77477206  0.60053854  0.29658271     0.36600
C360        C  0.78003761  0.60817488  0.33936863    -0.27600
F361        F  0.87058942  0.67986224  0.33918450    -0.19700
H362        H  0.85488054  0.66181325  0.26065589     0.15900
F363        F  0.74367661  0.57370238  0.28363751    -0.23500
H364        H  0.75939773  0.59228460  0.36128436     0.17800
C365        C  0.65113862  0.41143426  0.21688152    -0.27500
C366        C  0.61847468  0.40580189  0.20359971     0.06100
C367        C  0.61689487  0.43156605  0.17959137     0.25700
C368        C  0.64745676  0.46216526  0.16875875    -0.12000
C369        C  0.68033441  0.46786333  0.18162252    -0.25900
C370        C  0.68179714  0.44209080  0.20614885     0.36500
C371        C  0.58613282  0.37348166  0.21579660     0.06100
F372        F  0.58582622  0.42667580  0.16549214    -0.19700
H373        H  0.64532670  0.48119526  0.14957091     0.15900
F374        F  0.71277454  0.44592992  0.21894721    -0.23400
H375        H  0.65288648  0.39204535  0.23579844     0.17700
C376        C  0.58215870  0.34044315  0.20803197     0.25700
C377        C  0.55218292  0.31031719  0.22165868    -0.12000
C378        C  0.52583359  0.31256668  0.24373992    -0.26000
C379        C  0.52944004  0.34564494  0.25031124     0.36600
C380        C  0.55925526  0.37568568  0.23636758    -0.27600
F381        F  0.60727207  0.33730397  0.18734305    -0.19700
H382        H  0.55015455  0.28524966  0.21614182     0.15900
F383        F  0.50430750  0.34906612  0.27049921    -0.23500
H384        H  0.56178246  0.40087190  0.24264432     0.17800
C385        C  0.76545116  0.42045336  0.03746577    -0.27500
C386        C  0.78978114  0.41256390  0.05495546     0.06100
C387        C  0.81374843  0.43543630  0.08470001     0.25700
C388        C  0.81218039  0.46473269  0.09795806    -0.12000
C389        C  0.78674629  0.47183041  0.08182586    -0.25900
C390        C  0.76378214  0.44961359  0.05066463     0.36500
C391        C  0.78915922  0.37999072  0.04253922     0.06100
F392        F  0.83762962  0.42865522  0.10237515    -0.19700
H393        H  0.83031386  0.48129758  0.12183042     0.15900
F394        F  0.73901639  0.45534781  0.03354377    -0.23400
H395        H  0.74728319  0.40363602  0.01376151     0.17700
C396        C  0.75760816  0.34802180  0.04272297     0.25700
C397        C  0.75656843  0.31772103  0.02844296    -0.12000
C398        C  0.78684545  0.31864382  0.01339367    -0.26000
C399        C  0.81868099  0.35039857  0.01458678     0.36600
C400        C  0.81974476  0.38073411  0.02911720    -0.27600
F401        F  0.72767943  0.34609755  0.05657118    -0.19700
H402        H  0.73173519  0.29367595  0.02789567     0.15900
F403        F  0.84873730  0.35219675  0.00155301    -0.23500
H404        H  0.84432828  0.40503933  0.02873760     0.17800
C405        C  0.65353823  0.23709322  0.86133675    -0.27500
C406        C  0.62117533  0.21133723  0.87694101     0.06100
C407        C  0.61994603  0.18642905  0.90516598     0.25700
C408        C  0.65080741  0.18828295  0.91890108    -0.12000
C409        C  0.68348254  0.21496792  0.90472377    -0.25900
C410        C  0.68443554  0.23897900  0.87491718     0.36500
C411        C  0.58908303  0.21176482  0.86525249     0.06100
F412        F  0.58903739  0.16137726  0.92108712    -0.19700
H413        H  0.64907043  0.16934507  0.94169849     0.15900
F414        F  0.71512124  0.26486906  0.85957041    -0.23400
H415        H  0.65488607  0.25619904  0.83904318     0.17700
C416        C  0.58689189  0.24199363  0.87144655     0.25700
C417        C  0.55680089  0.24261090  0.86004330    -0.12000
C418        C  0.52843056  0.21326815  0.84180376    -0.26000
C419        C  0.53044197  0.18277784  0.83612082     0.36600
C420        C  0.56051653  0.18208540  0.84799376    -0.27600
F421        F  0.61381077  0.27090347  0.88884313    -0.12500
H422        H  0.55610172  0.26648142  0.86456216     0.15900
F423        F  0.50345290  0.15367703  0.81915865    -0.23500
H424        H  0.56177109  0.15855130  0.84305289     0.17800
C425        C  0.81287911  0.22972449  0.66605529    -0.27500
C426        C  0.81627816  0.20234595  0.68290646     0.06100
C427        C  0.82096323  0.18011826  0.65555894     0.25700
C428        C  0.81968425  0.18388855  0.61186998    -0.12000
C429        C  0.81363568  0.20979759  0.59507831    -0.25900
C430        C  0.81172696  0.23361128  0.62273328     0.36500
C431        C  0.81123509  0.19575754  0.72869871     0.06100
F432        F  0.82428479  0.15339140  0.67102204    -0.19700
H433        H  0.82112835  0.16516618  0.59134197     0.15900
F434        F  0.80725849  0.25987663  0.60798963    -0.23400
H435        H  0.80974230  0.24741105  0.68669391     0.17700
C436        C  0.83847737  0.19996551  0.75521309     0.25700
C437        C  0.83459855  0.19982045  0.79905748    -0.12000
C438        C  0.80361167  0.19568037  0.81671448    -0.26000
C439        C  0.77561706  0.18892843  0.78999446     0.36600
C440        C  0.77948017  0.18898985  0.74653000    -0.27600
F441        F  0.86958140  0.20688584  0.73877976    -0.19700
H442        H  0.85662979  0.20550465  0.81901002     0.15900
F443        F  0.74502665  0.18405057  0.80591907    -0.23500
H444        H  0.75809892  0.18536768  0.72656720     0.17800
C445        C  0.77954252  0.16871489  0.24741595    -0.27500
C446        C  0.81272175  0.18400878  0.22898247     0.06100
C447        C  0.84237928  0.19821285  0.25485016     0.25700
C448        C  0.83882041  0.19885097  0.29857097    -0.12000
C449        C  0.80569979  0.18605373  0.31672565    -0.25900
C450        C  0.77599840  0.16993870  0.29091362     0.36500
C451        C  0.81594049  0.19013141  0.18317787     0.06100
F452        F  0.87474069  0.21358343  0.23761256    -0.19700
H453        H  0.86202834  0.21204470  0.31783430     0.15900
F454        F  0.74368440  0.15751424  0.30758581    -0.23400
H455        H  0.75646323  0.15797328  0.22782885     0.17700
C456        C  0.81089910  0.16381225  0.15471301     0.25700
C457        C  0.80931506  0.16884505  0.11142860    -0.12000
C458        C  0.81181031  0.19980840  0.09626421    -0.26000
C459        C  0.81809051  0.22654077  0.12486558     0.36600
C460        C  0.82040263  0.22175683  0.16785443    -0.27600
F461        F  0.80595576  0.13279778  0.16891507    -0.19700
H462        H  0.80385716  0.14771425  0.09003992     0.15900
F463        F  0.82070530  0.25682487  0.11134871    -0.23500
H464        H  0.82404809  0.24217925  0.18949175     0.17800
C465        C  0.81325503  0.38270332  0.49784859    -0.27500
C466        C  0.78417381  0.38117053  0.51749016     0.06100
C467        C  0.75451515  0.34853763  0.52501438     0.25700
C468        C  0.75409607  0.31798219  0.51301373    -0.12000
C469        C  0.78305426  0.31939142  0.49283526    -0.25900
C470        C  0.81275712  0.35221488  0.48538864     0.36500
C471        C  0.78509144  0.41362266  0.53065969     0.06100
F472        F  0.72616210  0.34620652  0.54456815    -0.19700
H473        H  0.73080153  0.29319293  0.51891777     0.15900
F474        F  0.84145026  0.35497808  0.46629237    -0.23400
H475        H  0.83630522  0.40765893  0.49177090     0.17700
C476        C  0.81100359  0.43692640  0.55823800     0.25700
C477        C  0.81035455  0.46634019  0.57277565    -0.12000
C478        C  0.78398119  0.47324275  0.55993380    -0.26000
C479        C  0.75897130  0.45062008  0.53061472     0.36600
C480        C  0.75950429  0.42102006  0.51645430    -0.27600
F481        F  0.83601041  0.43037325  0.57266807    -0.19700
H482        H  0.83003660  0.48319565  0.59510523     0.15900
F483        F  0.73328341  0.45629470  0.51654932    -0.23500
H484        H  0.73964159  0.40356621  0.49466284     0.17800
C485        C  0.56877806  0.21559406  0.39487431    -0.27500
C486        C  0.58240128  0.20026544  0.36801939     0.06100
C487        C  0.56532119  0.18523440  0.33025687     0.25700
C488        C  0.53566903  0.18672757  0.31868654    -0.12000
C489        C  0.52265337  0.20345816  0.34449468    -0.25900
C490        C  0.53904394  0.21713782  0.38339279     0.36500
C491        C  0.61576737  0.20214254  0.37805218     0.06100
F492        F  0.57824311  0.17044690  0.30377683    -0.19700
H493        H  0.52377172  0.17601065  0.28857678     0.15900
F494        F  0.52677618  0.23246298  0.41000779    -0.23400
H495        H  0.58170712  0.22708897  0.42429011     0.17700
C496        C  0.64732452  0.23223806  0.36821003     0.25700
C497        C  0.67906267  0.23450507  0.37861114    -0.12000
C498        C  0.67981575  0.20688698  0.39938929    -0.26000
C499        C  0.64795962  0.17619507  0.40790786     0.36600
C500        C  0.61623881  0.17394164  0.39718321    -0.27600
F501        F  0.64733843  0.25964026  0.34914070    -0.19700
H502        H  0.70302542  0.25846236  0.37184009     0.15900
F503        F  0.64736644  0.14851988  0.42702848    -0.23500
H504        H  0.59199000  0.15040441  0.40439359     0.17800
C505        C  0.62218928  0.66949837  0.60144170    -0.27500
C506        C  0.65150127  0.67605983  0.57766878     0.06100
C507        C  0.66441412  0.70277837  0.54754676     0.25700
C508        C  0.64886076  0.72330129  0.54227992    -0.12000
C509        C  0.61990918  0.71743611  0.56668856    -0.25900
C510        C  0.60630005  0.68972846  0.59593292     0.36500
C511        C  0.66953142  0.65606045  0.58540198     0.06100
F512        F  0.69299031  0.70994117  0.52439442    -0.19700
H513        H  0.65998833  0.74426554  0.51953204     0.15900
F514        F  0.57816454  0.68253508  0.61999790    -0.23400
H515        H  0.61178920  0.64881755  0.62460028     0.17700
C516        C  0.68528022  0.65803491  0.62438919     0.25700
C517        C  0.70533424  0.64194996  0.63010844    -0.12000
C518        C  0.70938056  0.62299412  0.59734757    -0.26000
C519        C  0.69230051  0.61989887  0.55883052     0.36600
C520        C  0.67286374  0.63656487  0.55294929    -0.27600
F521        F  0.68250431  0.67679670  0.65631549    -0.19700
H522        H  0.71805420  0.64466027  0.66004517     0.15900
F523        F  0.69571636  0.60221468  0.52608475    -0.23500
H524        H  0.66082518  0.63475003  0.52273400     0.17800
C525        C  0.66884951  0.97141486  0.54320046    -0.27500
C526        C  0.65905005  0.98605037  0.51062532     0.06100
C527        C  0.63049080  0.96409624  0.48517071     0.25700
C528        C  0.61298642  0.92794162  0.49128703    -0.12000
C529        C  0.62363847  0.91299433  0.52287466    -0.25900
C530        C  0.65126908  0.93536290  0.54958741     0.36500
C531        C  0.68015716  0.02390891  0.50194409     0.06100
F532        F  0.62072167  0.97745092  0.45300108    -0.19700
H533        H  0.59191175  0.91156624  0.47018045     0.15900
F534        F  0.66174063  0.92250484  0.58158495    -0.23400
H535        H  0.69056704  0.98800983  0.56342495     0.17700
C536        C  0.66531970  0.04548762  0.50303374     0.25700
C537        C  0.68601056  0.08129815  0.49545680    -0.12000
C538        C  0.72169685  0.09610772  0.48602135    -0.26000
C539        C  0.73638481  0.07431435  0.48462858     0.36600
C540        C  0.71579300  0.03866526  0.49281408    -0.27600
F541        F  0.63106849  0.03209101  0.51248018    -0.19700
H542        H  0.67408280  0.09747864  0.49689697     0.15900
F543        F  0.77087705  0.08755462  0.47673000    -0.23500
H544        H  0.72767841  0.02242596  0.49192315     0.17800
C545        C  0.66279434  0.62523145  0.07806046    -0.27500
C546        C  0.67197087  0.65603647  0.09997175     0.06100
C547        C  0.70002187  0.66922834  0.12819919     0.25700
C548        C  0.71971766  0.65274703  0.13281578    -0.12000
C549        C  0.71192982  0.62284719  0.10920765    -0.25900
C550        C  0.68255387  0.60870772  0.08245356     0.36500
C551        C  0.65460378  0.67625622  0.09025781     0.06100
F552        F  0.70888620  0.69862012  0.15047388    -0.19700
H553        H  0.74172984  0.66406235  0.15410618     0.15900
F554        F  0.67369467  0.57985242  0.05909262    -0.23400
H555        H  0.64120986  0.61483020  0.05612578     0.17700
C556        C  0.67309020  0.70815092  0.06907878     0.25700
C557        C  0.65725807  0.72788747  0.06030597    -0.12000
C558        C  0.62271384  0.71643762  0.07285865    -0.26000
C559        C  0.60400898  0.68402547  0.09366939     0.36600
C560        C  0.61986850  0.66406161  0.10193465    -0.27600
F561        F  0.70657558  0.72018592  0.05683783    -0.19700
H562        H  0.67245717  0.75260964  0.04439192     0.15900
F563        F  0.57059508  0.67167820  0.10641572    -0.23500
H564        H  0.60528153  0.63938052  0.11814527     0.17800
C565        C  0.66886077  0.04224041  0.00530171    -0.27500
C566        C  0.68207185  0.02155882  0.98951297     0.06100
C567        C  0.71363683  0.03763558  0.96711073     0.25700
C568        C  0.73200223  0.07378910  0.96157453    -0.12000
C569        C  0.71955354  0.09489294  0.97854423    -0.25900
C570        C  0.68742216  0.07854738  0.00022933     0.36500
C571        C  0.66347605  0.98344601  0.99760166     0.06100
F572        F  0.72675315  0.01833191  0.95055906    -0.19700
H573        H  0.75650791  0.08531062  0.94468585     0.15900
F574        F  0.67405299  0.09751226  0.01708832    -0.23400
H575        H  0.64453445  0.03029188  0.02261046     0.17700
C576        C  0.68001337  0.96818922  0.01947168     0.25700
C577        C  0.66253059  0.93227626  0.02692276    -0.12000
C578        C  0.62824048  0.91055156  0.01237714    -0.26000
C579        C  0.61168607  0.92600339  0.99046499     0.36600
C580        C  0.62909882  0.96211853  0.98361075    -0.27600
F581        F  0.71303652  0.98812596  0.03406755    -0.19700
H582        H  0.67622397  0.92142082  0.04360954     0.15900
F583        F  0.57879799  0.90635834  0.97539826    -0.23500
H584        H  0.61594148  0.97342706  0.96666247     0.17800
C585        C  0.60861963  0.77762207  0.83441638    -0.27500
C586        C  0.62758838  0.81071222  0.81588058     0.06100
C587        C  0.64400289  0.84028004  0.84181855     0.25700
C588        C  0.63991899  0.83681625  0.88549093    -0.12000
C589        C  0.61874253  0.80396391  0.90368115    -0.25900
C590        C  0.60383363  0.77424906  0.87794965     0.36500
C591        C  0.62639708  0.81414799  0.76971464     0.06100
F592        F  0.66254487  0.87256517  0.82476554    -0.19700
H593        H  0.65103320  0.86003547  0.90481335     0.15900
F594        F  0.58305606  0.74220479  0.89476192    -0.23400
H595        H  0.59560465  0.75456597  0.81492086     0.17700
C596        C  0.63843491  0.79745537  0.74253236     0.25700
C597        C  0.63278027  0.79695872  0.69921118    -0.12000
C598        C  0.61418327  0.81219288  0.68256473    -0.26000
C599        C  0.60295037  0.82969779  0.70956212     0.36600
C600        C  0.60950046  0.83107628  0.75273993    -0.27600
F601        F  0.65447364  0.78055441  0.75807801    -0.19700
H602        H  0.64096083  0.78272945  0.67892652     0.15900
F603        F  0.58456808  0.84431223  0.69435623    -0.23500
H604        H  0.59965600  0.84369858  0.77326870     0.17800
C605        C  0.59210771  0.81987171  0.25203419    -0.27500
C606        C  0.62016565  0.81807722  0.26985111     0.06100
C607        C  0.64538927  0.81782936  0.24319390     0.25700
C608        C  0.64076688  0.81643484  0.19939752    -0.12000
C609        C  0.61083439  0.81494974  0.18195741    -0.25900
C610        C  0.58730042  0.81813626  0.20870968     0.36500
C611        C  0.61931449  0.81165225  0.31568404     0.06100
F612        F  0.67277475  0.81601705  0.25942693    -0.19700
H613        H  0.65913072  0.81382638  0.17940572     0.15900
F614        F  0.55850526  0.81764228  0.19310443    -0.23400
H615        H  0.57266506  0.82061896  0.27200817     0.17700
C616        C  0.64607900  0.83418652  0.34310880     0.25700
C617        C  0.64084294  0.83045235  0.38685024    -0.12000
C618        C  0.60891207  0.80425897  0.40341807    -0.26000
C619        C  0.58366302  0.78001688  0.37572266     0.36600
C620        C  0.58890701  0.78376949  0.33255265    -0.27600
F621        F  0.67604605  0.86111694  0.32773510    -0.19700
H622        H  0.66071071  0.84936527  0.40751301     0.15900
F623        F  0.55297369  0.75350519  0.39027406    -0.23500
H624        H  0.56830779  0.76562779  0.31198740     0.17800
C625        C  0.95915930  0.32277117  0.88558592    -0.27500
C626        C  0.98196411  0.32571141  0.91796048     0.06100
C627        C  0.96811593  0.31086163  0.95733501     0.25700
C628        C  0.93197863  0.29239898  0.96361259    -0.12000
C629        C  0.90906479  0.28900768  0.93104231    -0.25900
C630        C  0.92306625  0.30484350  0.89202523     0.36500
C631        C  0.02004753  0.34352752  0.91013105     0.06100
F632        F  0.98947716  0.31303805  0.98919644    -0.19700
H633        H  0.92185384  0.28036905  0.99385516     0.15900
F634        F  0.90188189  0.30155025  0.85941827    -0.23400
H635        H  0.96937676  0.33416265  0.85509552     0.17700
C636        C  0.03372117  0.33209820  0.87802476     0.25700
C637        C  0.06975916  0.34857556  0.87142968    -0.12000
C638        C  0.09295957  0.37691614  0.89655135    -0.26000
C639        C  0.07900998  0.38858428  0.92836383     0.36600
C640        C  0.04296129  0.37189680  0.93505142    -0.27600
F641        F  0.01227735  0.30423523  0.85393842    -0.19700
H642        H  0.07949744  0.33874568  0.84690926     0.15900
F643        F  0.10007343  0.41561420  0.95373526    -0.23500
H644        H  0.03285165  0.38114996  0.95981671     0.17800
C645        C  0.30390682  0.33889090  0.88353110    -0.27500
C646        C  0.32665458  0.34615023  0.84967512     0.06100
C647        C  0.33048745  0.37087935  0.81959566     0.25700
C648        C  0.31050183  0.38713711  0.82237437    -0.12000
C649        C  0.28610462  0.37856756  0.85495839    -0.25900
C650        C  0.28370704  0.35493351  0.88632367     0.36500
C651        C  0.34308998  0.32489365  0.84302263     0.06100
F652        F  0.35258141  0.37820293  0.78668760    -0.19700
H653        H  0.31306304  0.40529050  0.79796717     0.15900
F654        F  0.26128626  0.34658524  0.91910074    -0.23400
H655        H  0.30079661  0.31973885  0.90685583     0.17700
C656        C  0.37337838  0.33174179  0.86466737     0.25700
C657        C  0.38850841  0.31108606  0.85741853    -0.12000
C658        C  0.37334310  0.28309276  0.82882385    -0.26000
C659        C  0.34263279  0.27630264  0.80752430     0.36600
C660        C  0.32787969  0.29722023  0.81454349    -0.27600
F661        F  0.38825271  0.35836290  0.89262580    -0.19700
H662        H  0.41186850  0.31678674  0.87462619     0.15900
F663        F  0.32657992  0.24940542  0.78010235    -0.23500
H664        H  0.30429798  0.29168731  0.79792243     0.17800
C665        C  0.42845497  0.65485186  0.93135162    -0.27500
C666        C  0.41348804  0.62409350  0.95520903     0.06100
C667        C  0.42916741  0.62348720  0.99323044     0.25700
C668        C  0.45838446  0.65357268  0.00804772    -0.12000
C669        C  0.47249807  0.68502690  0.98542817    -0.25900
C670        C  0.45760092  0.68517908  0.94632466     0.36500
C671        C  0.38099525  0.59294304  0.94111579     0.06100
F672        F  0.41601535  0.59375607  0.01619678    -0.19700
H673        H  0.46929467  0.65242524  0.03803819     0.15900
F674        F  0.47086783  0.71459417  0.92274395    -0.23400
H675        H  0.41689811  0.65562763  0.90168244     0.17700
C676        C  0.35088070  0.57859353  0.96632211     0.25700
C677        C  0.32033008  0.54889793  0.95316940    -0.12000
C678        C  0.31931333  0.53278050  0.91480696    -0.26000
C679        C  0.34956076  0.54746126  0.88943236     0.36600
C680        C  0.37995945  0.57734153  0.90249365    -0.27600
F681        F  0.35084016  0.59380537  0.00329137    -0.19700
H682        H  0.29743222  0.53851084  0.97304598     0.15900
F683        F  0.34960012  0.53361631  0.85141367    -0.23500
H684        H  0.40285734  0.58821095  0.88256201     0.17800
C685        C  0.03297673  0.33865039  0.37108456    -0.27500
C686        C  0.01923319  0.34765205  0.40548123     0.06100
C687        C  0.04234322  0.37251421  0.43430899     0.25700
C688        C  0.07840985  0.38745594  0.42919474    -0.12000
C689        C  0.09227696  0.37773410  0.39548031    -0.25900
C690        C  0.06904977  0.35340707  0.36603828     0.36500
C691        C  0.98093301  0.32944564  0.41250480     0.06100
F692        F  0.03002790  0.38229701  0.46755922    -0.19700
H693        H  0.09548216  0.40608456  0.45233938     0.15900
F694        F  0.08103009  0.34354645  0.33251995    -0.23400
H695        H  0.01568244  0.31933112  0.34868578     0.17700
C696        C  0.95779919  0.32656069  0.38039360     0.25700
C697        C  0.92166710  0.30734111  0.38692406    -0.12000
C698        C  0.90793246  0.29025594  0.42534415    -0.26000
C699        C  0.93122032  0.29399252  0.45777354     0.36600
C700        C  0.96723067  0.31338435  0.45130945    -0.27600
F701        F  0.97012905  0.34216741  0.34265978    -0.19700
H702        H  0.90442389  0.30482819  0.36136373     0.15900
F703        F  0.91927379  0.27858365  0.49569328    -0.23500
H704        H  0.98450278  0.31500102  0.47639063     0.17800
C705        C  0.29553325  0.32851418  0.35963768    -0.27500
C706        C  0.32831974  0.34734902  0.34071575     0.06100
C707        C  0.34008339  0.38151336  0.32696110     0.25700
C708        C  0.31878288  0.39638241  0.33153026    -0.12000
C709        C  0.28543115  0.37731096  0.34982106    -0.25900
C710        C  0.27418161  0.34313063  0.36416638     0.36500
C711        C  0.34893566  0.33002994  0.33387264     0.06100
F712        F  0.37197353  0.40029237  0.30889742    -0.19700
H713        H  0.32825862  0.42268114  0.32032827     0.15900
F714        F  0.24210690  0.32319207  0.38138788    -0.23400
H715        H  0.28613357  0.30202160  0.37011923     0.17700
C716        C  0.36729763  0.32588489  0.36715277     0.25700
C717        C  0.38258804  0.30509598  0.36206029    -0.12000
C718        C  0.37898863  0.28747721  0.32405328    -0.26000
C719        C  0.36148009  0.29258970  0.29032530     0.36600
C720        C  0.34674972  0.31389782  0.29525016    -0.27600
F721        F  0.36923992  0.34086213  0.40497907    -0.19700
H722        H  0.39579130  0.30140305  0.38850737     0.15900
F723        F  0.35824519  0.27667077  0.25283715    -0.23500
H724        H  0.33242013  0.31673794  0.26944131     0.17800
C725        C  0.22528255  0.39697042  0.58046334    -0.27500
C726        C  0.19399348  0.37079152  0.59785154     0.06100
C727        C  0.16643022  0.34901024  0.57100362     0.25700
C728        C  0.16948468  0.35505705  0.52746745    -0.12000
C729        C  0.19983385  0.38324900  0.51051550    -0.25900
C730        C  0.22824546  0.40324801  0.53727186     0.36500
C731        C  0.18865207  0.37145781  0.64362207     0.06100
F732        F  0.13576828  0.32374127  0.58715717    -0.19700
H733        H  0.14721242  0.33947545  0.50750458     0.15900
F734        F  0.25826947  0.43015372  0.52188583    -0.23400
H735        H  0.24670838  0.41407174  0.60076636     0.17700
C736        C  0.19426363  0.35037772  0.67188940     0.25700
C737        C  0.19469762  0.35614704  0.71540031    -0.12000
C738        C  0.19012204  0.38335084  0.73091201    -0.26000
C739        C  0.18276989  0.40308959  0.70240442     0.36600
C740        C  0.18192544  0.39703941  0.65933136    -0.27600
F741        F  0.20138262  0.32580427  0.65737977    -0.19700
H742        H  0.20100750  0.34103610  0.73669055     0.15900
F743        F  0.17804509  0.42944970  0.71612684    -0.23500
H744        H  0.17769685  0.41357793  0.63791612     0.17800
C745        C  0.18961488  0.35365058  0.17053131    -0.27500
C746        C  0.18447420  0.37601444  0.14402875     0.06100
C747        C  0.17869548  0.40167328  0.16186222     0.25700
C748        C  0.18076638  0.40668651  0.20527304    -0.12000
C749        C  0.18818869  0.38593750  0.23183522    -0.25900
C750        C  0.19129181  0.35841885  0.21429910     0.36500
C751        C  0.19056972  0.37683935  0.09822493     0.06100
F752        F  0.17326250  0.42336917  0.13693412    -0.19700
H753        H  0.17823451  0.42797464  0.21806394     0.15900
F754        F  0.19915549  0.33832358  0.23898167    -0.23400
H755        H  0.19444450  0.33396328  0.15721926     0.17700
C756        C  0.22119812  0.40457231  0.08143641     0.25700
C757        C  0.22488028  0.41002579  0.03816182    -0.12000
C758        C  0.19819889  0.38784802  0.01057645    -0.26000
C759        C  0.16858068  0.35838744  0.02714806     0.36600
C760        C  0.16477107  0.35309049  0.07083908    -0.27600
F761        F  0.24680303  0.42755689  0.10721753    -0.19700
H762        H  0.24809443  0.43264059  0.02627636     0.15900
F763        F  0.14218432  0.33637953  0.00156589    -0.23500
H764        H  0.14096355  0.33160064  0.08335332     0.17800
C765        C  0.44082483  0.62700685  0.47295986    -0.27500
C766        C  0.40944826  0.62622464  0.46350265     0.06100
C767        C  0.40792537  0.65705801  0.46733692     0.25700
C768        C  0.43716694  0.68792878  0.48074529    -0.12000
C769        C  0.46826207  0.68851984  0.49142459    -0.25900
C770        C  0.46989802  0.65773529  0.48715335     0.36500
C771        C  0.37826959  0.59317570  0.45025952     0.06100
F772        F  0.37815166  0.65734644  0.45799436    -0.19700
H773        H  0.43512908  0.71115744  0.48407417     0.15900
F774        F  0.49960240  0.65734055  0.49658903    -0.23400
H775        H  0.44254283  0.60356513  0.47024240     0.17700
C776        C  0.37958135  0.57447052  0.41536673     0.25700
C777        C  0.34963091  0.54408648  0.40224260    -0.12000
C778        C  0.31768234  0.53162199  0.42360535    -0.26000
C779        C  0.31679412  0.54993629  0.45940108     0.36600
C780        C  0.34676173  0.58037793  0.47235991    -0.27600
F781        F  0.40946990  0.58637614  0.39289223    -0.19700
H782        H  0.35130275  0.53087911  0.37449375     0.15900
F783        F  0.28696218  0.53879357  0.48175410    -0.23500
H784        H  0.34535084  0.59413449  0.49972405     0.17800
C785        C  0.30867167  0.96798555  0.71406501    -0.27500
C786        C  0.32324426  0.98072098  0.75382022     0.06100
C787        C  0.31810467  0.95673697  0.78585463     0.25700
C788        C  0.29830541  0.92082973  0.77829614    -0.12000
C789        C  0.28268372  0.90806314  0.73892856    -0.25900
C790        C  0.28846495  0.93210454  0.70664750     0.36500
C791        C  0.34203971  0.01889300  0.76208781     0.06100
F792        F  0.33210580  0.96803049  0.82453460    -0.19700
H793        H  0.29422568  0.90297724  0.80376679     0.15900
F794        F  0.27452378  0.92098896  0.66791178    -0.23400
H795        H  0.31208523  0.98593431  0.68897879     0.17700
C796        C  0.36921394  0.04227141  0.73573960     0.25700
C797        C  0.38487702  0.07830231  0.74209381    -0.12000
C798        C  0.37367305  0.09190624  0.77466678    -0.26000
C799        C  0.34699936  0.06828331  0.80170511     0.36600
C800        C  0.33152516  0.03229880  0.79539264    -0.27600
F801        F  0.38062777  0.03025448  0.70380020    -0.19700
H802        H  0.40534673  0.09558089  0.72081277     0.15900
F803        F  0.33526158  0.07975921  0.83388235    -0.23500
H804        H  0.31046970  0.01482223  0.81591155     0.17800
C805        C  0.95660464  0.62621683  0.67224586    -0.27500
C806        C  0.97760529  0.66107446  0.66006495     0.06100
C807        C  0.96218130  0.67826862  0.64023682     0.25700
C808        C  0.92613373  0.66109112  0.63364871    -0.12000
C809        C  0.90454066  0.62640767  0.64700673    -0.25900
C810        C  0.92038556  0.60897581  0.66603133     0.36500
C811        C  0.01552487  0.67984684  0.66864513     0.06100
F812        F  0.98206169  0.71181971  0.62742944    -0.19700
H813        H  0.91507866  0.67536717  0.61880785     0.15900
F814        F  0.90100425  0.57554370  0.67938164    -0.23400
H815        H  0.96822679  0.61259192  0.68742760     0.17700
C816        C  0.02963153  0.70575478  0.69969205     0.25700
C817        C  0.06574582  0.72522028  0.70569846    -0.12000
C818        C  0.08857446  0.71934477  0.68074100    -0.26000
C819        C  0.07412135  0.69266031  0.65020249     0.36600
C820        C  0.03793456  0.67311520  0.64444744    -0.27600
F821        F  0.00841499  0.71237707  0.72399877    -0.19700
H822        H  0.07583694  0.74528430  0.72959484     0.15900
F823        F  0.09482238  0.68607218  0.62487716    -0.23500
H824        H  0.02739426  0.65328865  0.62026447     0.17800
C825        C  0.24063621  0.58821625  0.78816654    -0.27500
C826        C  0.20939428  0.58876030  0.79259754     0.06100
C827        C  0.17977890  0.55924534  0.80845334     0.25700
C828        C  0.18180663  0.53005721  0.82104044    -0.12000
C829        C  0.21321916  0.52955905  0.81725617    -0.25900
C830        C  0.24257939  0.55883756  0.80002132     0.36500
C831        C  0.20802755  0.62035389  0.78098779     0.06100
F832        F  0.14925343  0.55915323  0.81309137    -0.19700
H833        H  0.15886680  0.50795406  0.83425769     0.15900
F834        F  0.27361265  0.55980266  0.79640339    -0.23400
H835        H  0.26364498  0.61075394  0.77576730     0.17700
C836        C  0.22805438  0.65173744  0.80279281     0.25700
C837        C  0.22755799  0.68183645  0.79062382    -0.12000
C838        C  0.20729454  0.68129681  0.75624169    -0.26000
C839        C  0.18693488  0.64949621  0.73476099     0.36600
C840        C  0.18721552  0.61938488  0.74732752    -0.27600
F841        F  0.24805587  0.65321316  0.83590445    -0.19700
H842        H  0.24356093  0.70574784  0.80776224     0.15900
F843        F  0.16769069  0.64756712  0.70063436    -0.23500
H844        H  0.17182778  0.59539392  0.73004486     0.17800
C845        C  0.43495718  0.81980514  0.60632007    -0.27500
C846        C  0.40712934  0.78953379  0.62341303     0.06100
C847        C  0.40985639  0.75950000  0.62780784     0.25700
C848        C  0.44010106  0.75977906  0.61492366    -0.12000
C849        C  0.46784992  0.78982719  0.59683418    -0.25900
C850        C  0.46504475  0.82000449  0.59277916     0.36500
C851        C  0.37516830  0.78934962  0.63630707     0.06100
F852        F  0.38328880  0.72997845  0.64463036    -0.19700
H853        H  0.44135916  0.73607686  0.61804717     0.15900
F854        F  0.49116079  0.84960485  0.57554354    -0.23400
H855        H  0.43304751  0.84312831  0.60276133     0.17700
C856        C  0.37609643  0.81112088  0.66877588     0.25700
C857        C  0.34550803  0.81024508  0.68147905    -0.12000
C858        C  0.31347346  0.78766242  0.66193849    -0.26000
C859        C  0.31290977  0.76635581  0.62864182     0.36600
C860        C  0.34355411  0.76719402  0.61619503    -0.27600
F861        F  0.40640754  0.83233115  0.68909744    -0.19700
H862        H  0.34686431  0.82676752  0.70732698     0.15900
F863        F  0.28283504  0.74435327  0.60838286    -0.23500
H864        H  0.34265808  0.75046715  0.59081223     0.17800
C865        C  0.36087782  0.03964588  0.23269288    -0.27500
C866        C  0.33673504  0.01665017  0.26194276     0.06100
C867        C  0.32932906  0.03012384  0.29795101     0.25700
C868        C  0.34505283  0.06624204  0.30370047    -0.12000
C869        C  0.36880619  0.08948579  0.27393466    -0.25900
C870        C  0.37697816  0.07563529  0.23858935     0.36500
C871        C  0.31787501  0.97880023  0.25323604     0.06100
F872        F  0.30585528  0.00836000  0.32664211    -0.19700
H873        H  0.33833142  0.07601094  0.33122378     0.15900
F874        F  0.39953806  0.09673076  0.20871614    -0.23400
H875        H  0.36687011  0.02962613  0.20480292     0.17700
C876        C  0.29543303  0.96559100  0.21853546     0.25700
C877        C  0.27664097  0.92974100  0.21095435    -0.12000
C878        C  0.28011243  0.90629662  0.23754601    -0.26000
C879        C  0.30356676  0.91982697  0.27168125     0.36600
C880        C  0.32198586  0.95573694  0.27951530    -0.27600
F881        F  0.29085626  0.98735945  0.19272371    -0.19700
H882        H  0.25895169  0.92031665  0.18446554     0.15900
F883        F  0.30807529  0.89845837  0.29827272    -0.23500
H884        H  0.33943673  0.96559845  0.30621062     0.17800
C885        C  0.95576390  0.63897459  0.19902468    -0.27500
C886        C  0.97797914  0.65484533  0.16464693     0.06100
C887        C  0.96337318  0.65360578  0.12503364     0.25700
C888        C  0.92715839  0.63804601  0.12047918    -0.12000
C889        C  0.90493380  0.62285345  0.15511930    -0.25900
C890        C  0.91960230  0.62297368  0.19440522     0.36500
C891        C  0.01623588  0.67482538  0.17108000     0.06100
F892        F  0.98417042  0.66881821  0.09119463    -0.19700
H893        H  0.91647201  0.63814873  0.08992005     0.15900
F894        F  0.89915253  0.60923361  0.22886939    -0.23400
H895        H  0.96654996  0.63961247  0.22976182     0.17700
C896        C  0.03071738  0.70215901  0.20035440     0.25700
C897        C  0.06681825  0.72203745  0.20538637    -0.12000
C898        C  0.08941636  0.71514373  0.18143926    -0.26000
C899        C  0.07474629  0.68714256  0.15267540     0.36600
C900        C  0.03849954  0.66736621  0.14751724    -0.27600
F901        F  0.00994839  0.71050174  0.22303932    -0.19700
H902        H  0.07705680  0.74333181  0.22767776     0.15900
F903        F  0.09524354  0.67906785  0.12903275    -0.23500
H904        H  0.02775369  0.64621004  0.12501330     0.17800
C905        C  0.16531267  0.77600148  0.91655349    -0.27500
C906        C  0.17677706  0.80878191  0.93476270     0.06100
C907        C  0.18810259  0.83803462  0.90859587     0.25700
C908        C  0.18969598  0.83470197  0.86495704    -0.12000
C909        C  0.18083185  0.80232395  0.84710518    -0.25900
C910        C  0.16762711  0.77278197  0.87315006     0.36500
C911        C  0.18139943  0.81258583  0.98088052     0.06100
F912        F  0.19923153  0.87000682  0.92546058    -0.19700
H913        H  0.20036158  0.85783628  0.84550493     0.15900
F914        F  0.15868208  0.74110722  0.85678188    -0.23400
H915        H  0.15667865  0.75322326  0.93627941     0.17700
C916        C  0.15263357  0.79746265  0.00821073     0.25700
C917        C  0.15774625  0.79689438  0.05160573    -0.12000
C918        C  0.19151413  0.81038293  0.06809786    -0.26000
C919        C  0.22026829  0.82628362  0.04082115     0.36600
C920        C  0.21520089  0.82781040  0.99766074    -0.27600
F921        F  0.11967504  0.78199423  0.99274297    -0.19700
H922        H  0.13524073  0.78381298  0.07203303     0.15900
F923        F  0.25315292  0.83908653  0.05575996    -0.23500
H924        H  0.23763525  0.83913177  0.97696525     0.17800
C925        C  0.17885555  0.77783666  0.41891163    -0.27500
C926        C  0.18192539  0.80871665  0.43491327     0.06100
C927        C  0.18321986  0.83381125  0.40682729     0.25700
C928        C  0.18416406  0.82901922  0.36327429    -0.12000
C929        C  0.18405453  0.79927762  0.34746104    -0.25900
C930        C  0.17984323  0.77304760  0.37575394     0.36500
C931        C  0.18867582  0.81576401  0.48043175     0.06100
F932        F  0.18623050  0.86394290  0.42150223    -0.19700
H933        H  0.18752734  0.84964454  0.34217231     0.15900
F934        F  0.17844953  0.74342922  0.36178859    -0.23400
H935        H  0.17751536  0.75808673  0.44013524     0.17700
C936        C  0.16359273  0.81519513  0.50802446     0.25700
C937        C  0.16824366  0.81494762  0.55169853    -0.12000
C938        C  0.19778931  0.81498200  0.56811989    -0.26000
C939        C  0.22397856  0.81831670  0.54025961     0.36600
C940        C  0.21936591  0.81868055  0.49698307    -0.27600
F941        F  0.13357500  0.81219893  0.49283877    -0.19700
H942        H  0.14759262  0.81206684  0.57248515     0.15900
F943        F  0.25330064  0.81933096  0.55482615    -0.23500
H944        H  0.23908697  0.81942410  0.47614474     0.17800
C945        C  0.23903069  0.64893939  0.27309636    -0.27500
C946        C  0.20674460  0.61810343  0.27658893     0.06100
C947        C  0.17598675  0.61904710  0.26829813     0.25700
C948        C  0.17778085  0.65025783  0.25597034    -0.12000
C949        C  0.21015816  0.68107167  0.25259374    -0.25900
C950        C  0.24081290  0.68011307  0.26127463     0.36500
C951        C  0.20571998  0.58549364  0.28975570     0.06100
F952        F  0.14433271  0.58968041  0.27111475    -0.19700
H953        H  0.15387957  0.65038578  0.24907446     0.15900
F954        F  0.27263797  0.70902509  0.25668557    -0.23400
H955        H  0.26302076  0.64891055  0.27972769     0.17700
C956        C  0.22705522  0.57454386  0.27006517     0.25700
C957        C  0.22867069  0.54584643  0.28546524    -0.12000
C958        C  0.20905621  0.52738065  0.32079847    -0.26000
C959        C  0.18657292  0.53759317  0.33940955     0.36600
C960        C  0.18505974  0.56635502  0.32396298    -0.27600
F961        F  0.24658474  0.59179226  0.23606482    -0.19700
H962        H  0.24591763  0.53854903  0.27010720     0.15900
F963        F  0.16691510  0.52072722  0.37348112    -0.23500
H964        H  0.16863972  0.57448376  0.33979660     0.17800
C965        C  0.34608028  0.76120587  0.12380243    -0.27500
C966        C  0.37838583  0.79074405  0.13279805     0.06100
C967        C  0.37902377  0.81885396  0.15404074     0.25700
C968        C  0.34782493  0.81701235  0.16665318    -0.12000
C969        C  0.31539492  0.78724693  0.15806714    -0.25900
C970        C  0.31491566  0.75932649  0.13625576     0.36500
C971        C  0.41106937  0.79158392  0.12016667     0.06100
F972        F  0.40981718  0.84756217  0.16389700    -0.19700
H973        H  0.34909934  0.83879284  0.18363595     0.15900
F974        F  0.28447942  0.72960698  0.12818913    -0.23400
H975        H  0.34499474  0.73935226  0.10718880     0.17700
C976        C  0.41667710  0.76403142  0.13097545     0.25700
C977        C  0.44611748  0.76347019  0.11632572    -0.12000
C978        C  0.47064900  0.79024999  0.09038048    -0.26000
C979        C  0.46564859  0.81853680  0.08082791     0.36600
C980        C  0.43612829  0.81910841  0.09569437    -0.27600
F981        F  0.39356684  0.73750944  0.15565867    -0.19700
H982        H  0.44917939  0.74143723  0.12457383     0.15900
F983        F  0.48891593  0.84542634  0.05674150    -0.23500
H984        H  0.43230269  0.84060397  0.08703783     0.17800
loop_ 
_geom_bond_atom_site_label_1 
_geom_bond_atom_site_label_2 
_geom_bond_distance 
_geom_bond_site_symmetry_2 
_ccdc_geom_bond_type 
Fe1          O17   2.056       .  S
Fe1           O7   2.089       .  S
Fe1          O14   2.092       .  S
Fe1           O6   2.052       .  S
Fe1          O12   1.944       .  S
Fe2           O5   2.048       .  S
Fe2           O9   2.087       .  S
Fe2          O13   2.055       .  S
Fe2          O18   2.087       .  S
Fe2          O12   1.942       .  S
Fe3          O21   2.108       .  S
Fe3           O8   2.061       .  S
Fe3          O15   2.055       .  S
Fe3           O4   2.107       .  S
Fe3          O12   1.950       .  S
O4           C11   1.277       .  A
O5           C19   1.269       .  A
O6           C11   1.268       .  A
O7           C10   1.274       .  A
O8           C20   1.271       .  A
O9           C22   1.273       .  A
C10          O15   1.270       .  A
C10         C898   1.489       .  S
C11         C918   1.476       .  S
O13          C16   1.269       .  A
O14          C16   1.275       .  A
C16         C969   1.486       .  S
O17          C22   1.267       .  A
O18          C20   1.273       .  A
C19          O21   1.277       .  A
C19         C929   1.484       .  S
C20         C878   1.488       .  S
C22         C949   1.477       .  S
Fe23         O39   2.053       .  S
Fe23         O29   2.084       .  S
Fe23         O36   2.080       .  S
Fe23         O28   2.044       .  S
Fe23         O34   1.944       .  S
Fe24         O27   2.045       .  S
Fe24         O31   2.090       .  S
Fe24         O35   2.050       .  S
Fe24         O40   2.094       .  S
Fe24         O34   1.947       .  S
Fe25         O43   2.110       .  S
Fe25         O30   2.064       .  S
Fe25         O37   2.064       .  S
Fe25         O26   2.107       .  S
Fe25         O34   1.954       .  S
O26          C33   1.276       .  A
O27          C41   1.268       .  A
O28          C33   1.267       .  A
O29          C32   1.274       .  A
O30          C42   1.270       .  A
O31          C44   1.273       .  A
C32          O37   1.272       .  A
C32         C818   1.490       .  S
C33         C938   1.483       .  S
O35          C38   1.270       .  A
O36          C38   1.273       .  A
C38         C858   1.481       .  S
O39          C44   1.267       .  A
O40          C42   1.274       .  A
C41          O43   1.278       .  A
C41         C909   1.477       .  S
C42         C789   1.487       .  S
C44         C838   1.489       .  S
Fe45         O61   2.052       .  S
Fe45         O51   2.090       .  S
Fe45         O58   2.087       .  S
Fe45         O50   2.048       .  S
Fe45         O56   1.950       .  S
Fe46         O49   2.050       .  S
Fe46         O53   2.089       .  S
Fe46         O57   2.059       .  S
Fe46         O62   2.093       .  S
Fe46         O56   1.951       .  S
Fe47         O65   2.101       .  S
Fe47         O52   2.047       .  S
Fe47         O59   2.055       .  S
Fe47         O48   2.107       .  S
Fe47         O56   1.961       .  S
O48          C55   1.276       .  A
O49          C63   1.267       .  A
O50          C55   1.268       .  A
O51          C54   1.274       .  A
O52          C64   1.269       .  A
O53          C66   1.276       .  A
C54          O59   1.268       .  A
C54         C689   1.487       .  S
C55         C729   1.481       .  S
O57          C60   1.268       .  A
O58          C60   1.272       .  A
C60         C778   1.492       .  S
O61          C66   1.269       .  A
O62          C64   1.276       .  A
C63          O65   1.274       .  A
C63         C749   1.481       .  S
C64         C709   1.487       .  S
C66         C958   1.488       .  S
Fe67         O83   2.055       .  S
Fe67         O73   2.094       .  S
Fe67         O80   2.098       .  S
Fe67         O72   2.048       .  S
Fe67         O78   1.938       .  S
Fe68         O71   2.040       .  S
Fe68         O75   2.089       .  S
Fe68         O79   2.043       .  S
Fe68         O84   2.087       .  S
Fe68         O78   1.942       .  S
Fe69         O87   2.114       .  S
Fe69         O74   2.043       .  S
Fe69         O81   2.054       .  S
Fe69         O70   2.108       .  S
Fe69         O78   1.953       .  S
O70          C77   1.276       .  A
O71          C85   1.266       .  A
O72          C77   1.268       .  A
O73          C76   1.276       .  A
O74          C86   1.267       .  A
O75          C88   1.275       .  A
C76          O81   1.270       .  A
C76         C638   1.489       .  S
C77         C758   1.484   1_556  S
O79          C82   1.265       .  A
O80          C82   1.275       .  A
C82         C678   1.485       .  S
O83          C88   1.270       .  A
O84          C86   1.275       .  A
C85          O87   1.277       .  A
C85         C738   1.482       .  S
C86         C649   1.479       .  S
C88         C829   1.482       .  S
Fe89        O105   2.064   1_556  S
Fe89         O95   2.091       .  S
Fe89        O102   2.091       .  S
Fe89         O94   2.048       .  S
Fe89        O100   1.956   1_556  S
Fe90         O93   2.043       .  S
Fe90         O97   2.076       .  S
Fe90        O101   2.052       .  S
Fe90        O106   2.076       .  S
Fe90        O100   1.953       .  S
Fe91        O109   2.104       .  S
Fe91         O96   2.059       .  S
Fe91        O103   2.058       .  S
Fe91         O92   2.100   1_554  S
Fe91        O100   1.963       .  S
O92          C99   1.276       .  A
O93         C107   1.268       .  A
O94          C99   1.268       .  A
O95          C98   1.274   1_556  A
O96         C108   1.269       .  A
O97         C110   1.272       .  A
C98         O103   1.269       .  A
C98         C578   1.493       .  S
C99         C589   1.471       .  S
O101        C104   1.268       .  A
O102        C104   1.274   1_556  A
C104        C669   1.487   1_554  S
O105        C110   1.270       .  A
O106        C108   1.270       .  A
C107        O109   1.277       .  A
C107        C609   1.480       .  S
C108        C558   1.487       .  S
C110        C978   1.488       .  S
Fe111       O127   2.045       .  S
Fe111       O117   2.088       .  S
Fe111       O124   2.099       .  S
Fe111       O116   2.036       .  S
Fe111       O122   1.946       .  S
Fe112       O115   2.053       .  S
Fe112       O119   2.078       .  S
Fe112       O123   2.057       .  S
Fe112       O128   2.077       .  S
Fe112       O122   1.946       .  S
Fe113       O131   2.105       .  S
Fe113       O118   2.062       .  S
Fe113       O125   2.062       .  S
Fe113       O114   2.108       .  S
Fe113       O122   1.953       .  S
O114        C121   1.277       .  A
O115        C129   1.269       .  A
O116        C121   1.267       .  A
O117        C120   1.274       .  A
O118        C130   1.269       .  A
O119        C132   1.271       .  A
C120        O125   1.270       .  A
C120        C529   1.490       .  S
C121        C618   1.483       .  S
O123        C126   1.269       .  A
O124        C126   1.276       .  A
C126        C769   1.483       .  S
O127        C132   1.265       .  A
O128        C130   1.270       .  A
C129        O131   1.278       .  A
C129        C598   1.473       .  S
C130        C509   1.488       .  S
C132        C849   1.476       .  S
Fe133       O149   2.050       .  S
Fe133       O139   2.097       .  S
Fe133       O146   2.095       .  S
Fe133       O138   2.042       .  S
Fe133       O144   1.946       .  S
Fe134       O137   2.044       .  S
Fe134       O141   2.092       .  S
Fe134       O145   2.045       .  S
Fe134       O150   2.084       .  S
Fe134       O144   1.942       .  S
Fe135       O153   2.106       .  S
Fe135       O140   2.058       .  S
Fe135       O147   2.051       .  S
Fe135       O136   2.113       .  S
Fe135       O144   1.952       .  S
O136        C143   1.278       .  A
O137        C151   1.268       .  A
O138        C143   1.267       .  A
O139        C142   1.275       .  A
O140        C152   1.270       .  A
O141        C154   1.275       .  A
C142        O147   1.267       .  A
C142        C698   1.485       .  S
C143        C449   1.475       .  S
O145        C148   1.265       .  A
O146        C148   1.275       .  A
C148        C498   1.483       .  S
O149        C154   1.268       .  A
O150        C152   1.273       .  A
C151        O153   1.277       .  A
C151        C429   1.485       .  S
C152        C538   1.483       .  S
C154        C469   1.483       .  S
Fe155       O171   2.054       .  S
Fe155       O161   2.086       .  S
Fe155       O168   2.088       .  S
Fe155       O160   2.040       .  S
Fe155       O166   1.944       .  S
Fe156       O159   2.044   1_556  S
Fe156       O163   2.094   1_556  S
Fe156       O167   2.050       .  S
Fe156       O172   2.093       .  S
Fe156       O166   1.944       .  S
Fe157       O175   2.108   1_556  S
Fe157       O162   2.057       .  S
Fe157       O169   2.059       .  S
Fe157       O158   2.116       .  S
Fe157       O166   1.949       .  S
O158        C165   1.279       .  A
O159        C173   1.268       .  A
O160        C165   1.268       .  A
O161        C164   1.272       .  A
O162        C174   1.270       .  A
O163        C176   1.275   1_554  A
C164        O169   1.268       .  A
C164        C629   1.481       .  S
C165        C438   1.480       .  S
O167        C170   1.268       .  A
O168        C170   1.273       .  A
C170        C409   1.485       .  S
O171        C176   1.268       .  A
O172        C174   1.274       .  A
C173        O175   1.278       .  A
C173        C458   1.478       .  S
C174        C569   1.492       .  S
C176        C398   1.481   1_556  S
Fe177       O193   2.053       .  S
Fe177       O183   2.084       .  S
Fe177       O190   2.089       .  S
Fe177       O182   2.047       .  S
Fe177       O188   1.947       .  S
Fe178       O181   2.043       .  S
Fe178       O185   2.086       .  S
Fe178       O189   2.051       .  S
Fe178       O194   2.085       .  S
Fe178       O188   1.941       .  S
Fe179       O197   2.108       .  S
Fe179       O184   2.058       .  S
Fe179       O191   2.062       .  S
Fe179       O180   2.109       .  S
Fe179       O188   1.955       .  S
O180        C187   1.278       .  A
O181        C195   1.266       .  A
O182        C187   1.269       .  A
O183        C186   1.272       .  A
O184        C196   1.271       .  A
O185        C198   1.275       .  A
C186        O191   1.269       .  A
C186        C889   1.480       .  S
C187        C358   1.480       .  S
O189        C192   1.266       .  A
O190        C192   1.271       .  A
C192        C369   1.488       .  S
O193        C198   1.270       .  A
O194        C196   1.274       .  A
C195        O197   1.276       .  A
C195        C329   1.481   1_554  S
C196        C549   1.488       .  S
C198        C389   1.486       .  S
Fe199       O215   2.056       .  S
Fe199       O205   2.091       .  S
Fe199       O212   2.100       .  S
Fe199       O204   2.040       .  S
Fe199       O210   1.953       .  S
Fe200       O203   2.044       .  S
Fe200       O207   2.073       .  S
Fe200       O211   2.056       .  S
Fe200       O216   2.075       .  S
Fe200       O210   1.957       .  S
Fe201       O219   2.110       .  S
Fe201       O206   2.067       .  S
Fe201       O213   2.061       .  S
Fe201       O202   2.106       .  S
Fe201       O210   1.966       .  S
O202        C209   1.277       .  A
O203        C217   1.269       .  A
O204        C209   1.267       .  A
O205        C208   1.275       .  A
O206        C218   1.269       .  A
O207        C220   1.268       .  A
C208        O213   1.271       .  A
C208        C809   1.494       .  S
C209        C338   1.486       .  S
O211        C214   1.271       .  A
O212        C214   1.278       .  A
C214        C309   1.487       .  S
O215        C220   1.266       .  A
O216        C218   1.269       .  A
C217        O219   1.278       .  A
C217        C349   1.477       .  S
C218        C518   1.485       .  S
C220        C478   1.486       .  S
Fe221       O237   2.052       .  S
Fe221       O227   2.076       .  S
Fe221       O234   2.080       .  S
Fe221       O226   2.049       .  S
Fe221       O232   1.950       .  S
Fe222       O225   2.048       .  S
Fe222       O229   2.087       .  S
Fe222       O233   2.059       .  S
Fe222       O238   2.083       .  S
Fe222       O232   1.953       .  S
Fe223       O241   2.106       .  S
Fe223       O228   2.061       .  S
Fe223       O235   2.071       .  S
Fe223       O224   2.105       .  S
Fe223       O232   1.964       .  S
O224        C231   1.275       .  A
O225        C239   1.267       .  A
O226        C231   1.268       .  A
O227        C230   1.272       .  A
O228        C240   1.271       .  A
O229        C242   1.274       .  A
C230        O235   1.272       .  A
C230        C869   1.488       .  S
C231        C289   1.478       .  S
O233        C236   1.268       .  A
O234        C236   1.271       .  A
C236        C378   1.484       .  S
O237        C242   1.269       .  A
O238        C240   1.273       .  A
C239        O241   1.276       .  A
C239        C278   1.485       .  S
C240        C718   1.478       .  S
C242        C489   1.484       .  S
Fe243       O259   2.050       .  S
Fe243       O249   2.097       .  S
Fe243       O256   2.096       .  S
Fe243       O248   2.045       .  S
Fe243       O254   1.945       .  S
Fe244       O247   2.045       .  S
Fe244       O251   2.082       .  S
Fe244       O255   2.058       .  S
Fe244       O260   2.077       .  S
Fe244       O254   1.945       .  S
Fe245       O263   2.112       .  S
Fe245       O250   2.049       .  S
Fe245       O257   2.057       .  S
Fe245       O246   2.115       .  S
Fe245       O254   1.955       .  S
O246        C253   1.278       .  A
O247        C261   1.268       .  A
O248        C253   1.267       .  A
O249        C252   1.276       .  A
O250        C262   1.269       .  A
O251        C264   1.274       .  A
C252        O257   1.269       .  A
C252        C798   1.493       .  S
C253        C269   1.478       .  S
O255        C258   1.268       .  A
O256        C258   1.274       .  A
C258        C318   1.494       .  S
O259        C264   1.268       .  A
O260        C262   1.273       .  A
C261        O263   1.278       .  A
C261        C298   1.495       .  S
C262        C658   1.481       .  S
C264        C418   1.478       .  S
C265        C266   1.402       .  A
C265        C270   1.399       .  A
C265        H275   1.083       .  S
C266        C271   1.480       .  S
C266        C267   1.406       .  A
C267        C268   1.405       .  A
C267        F272   1.357       .  S
C268        C269   1.405       .  A
C268        H273   1.083       .  S
C269        C270   1.407       .  A
C270        F274   1.358       .  S
C271        C276   1.405       .  A
C271        C280   1.401       .  A
C276        C277   1.406       .  A
C276        F281   1.357       .  S
C277        C278   1.408       .  A
C277        H282   1.083       .  S
C278        C279   1.409       .  A
C279        C280   1.397       .  A
C279        F283   1.358       .  S
C280        H284   1.084       .  S
C285        C286   1.405       .  A
C285        C290   1.396       .  A
C285        H295   1.084       .  S
C286        C291   1.486       .  S
C286        C287   1.408       .  A
C287        C288   1.407       .  A
C287        F292   1.357       .  S
C288        C289   1.406       .  A
C288        H293   1.083       .  S
C289        C290   1.404       .  A
C290        F294   1.358       .  S
C291        C296   1.407   1_554  A
C291        C300   1.401       .  A
C296        C297   1.410       .  A
C296        F301   1.357   1_556  S
C297        C298   1.412       .  A
C297        H302   1.083       .  S
C298        C299   1.412       .  A
C299        C300   1.392   1_556  A
C299        F303   1.358       .  S
C300        H304   1.084       .  S
C305        C306   1.402       .  A
C305        C310   1.399       .  A
C305        H315   1.083       .  S
C306        C311   1.484       .  S
C306        C307   1.407       .  A
C307        C308   1.404       .  A
C307        F312   1.357       .  S
C308        C309   1.407       .  A
C308        H313   1.083       .  S
C309        C310   1.411       .  A
C310        F314   1.357       .  S
C311        C316   1.404       .  A
C311        C320   1.403       .  A
C316        C317   1.402       .  A
C316        F321   1.357       .  S
C317        C318   1.411       .  A
C317        H322   1.083       .  S
C318        C319   1.412       .  A
C319        C320   1.401       .  A
C319        F323   1.357       .  S
C320        H324   1.083       .  S
C325        C326   1.406       .  A
C325        C330   1.407       .  A
C325        H335   1.083       .  S
C326        C331   1.487       .  S
C326        C327   1.406       .  A
C327        C328   1.395       .  A
C327        F332   1.358       .  S
C328        C329   1.404       .  A
C328        H333   1.084       .  S
C329        C330   1.408       .  A
C330        F334   1.357       .  S
C331        C336   1.405       .  A
C331        C340   1.407       .  A
C336        C337   1.393       .  A
C336        F341   1.358       .  S
C337        C338   1.406       .  A
C337        H342   1.084       .  S
C338        C339   1.410       .  A
C339        C340   1.408       .  A
C339        F343   1.357       .  S
C340        H344   1.083       .  S
C345        C346   1.401       .  A
C345        C350   1.396       .  A
C345        H355   1.084       .  S
C346        C351   1.477       .  S
C346        C347   1.405       .  A
C347        C348   1.405       .  A
C347        F352   1.357       .  S
C348        C349   1.406       .  A
C348        H353   1.083       .  S
C349        C350   1.406       .  A
C350        F354   1.358       .  S
C351        C356   1.405       .  A
C351        C360   1.401       .  A
C356        C357   1.405       .  A
C356        F361   1.357       .  S
C357        C358   1.408       .  A
C357        H362   1.083       .  S
C358        C359   1.407       .  A
C359        C360   1.395       .  A
C359        F363   1.358       .  S
C360        H364   1.084       .  S
C365        C366   1.404       .  A
C365        C370   1.400       .  A
C365        H375   1.083       .  S
C366        C371   1.484       .  S
C366        C367   1.405       .  A
C367        C368   1.398       .  A
C367        F372   1.357       .  S
C368        C369   1.408       .  A
C368        H373   1.083       .  S
C369        C370   1.412       .  A
C370        F374   1.357       .  S
C371        C376   1.407       .  A
C371        C380   1.404       .  A
C376        C377   1.400       .  A
C376        F381   1.358       .  S
C377        C378   1.407       .  A
C377        H382   1.083       .  S
C378        C379   1.409       .  A
C379        C380   1.398       .  A
C379        F383   1.357       .  S
C380        H384   1.083       .  S
C385        C386   1.403       .  A
C385        C390   1.396       .  A
C385        H395   1.083       .  S
C386        C391   1.484       .  S
C386        C387   1.406       .  A
C387        C388   1.400       .  A
C387        F392   1.357       .  S
C388        C389   1.409       .  A
C388        H393   1.083       .  S
C389        C390   1.410       .  A
C390        F394   1.357       .  S
C391        C396   1.407       .  A
C391        C400   1.404       .  A
C396        C397   1.397       .  A
C396        F401   1.358       .  S
C397        C398   1.404       .  A
C397        H402   1.083       .  S
C398        C399   1.409       .  A
C399        C400   1.400       .  A
C399        F403   1.357       .  S
C400        H404   1.083       .  S
C405        C406   1.403       .  A
C405        C410   1.397       .  A
C405        H415   1.083       .  S
C406        C411   1.478       .  S
C406        C407   1.403       .  A
C407        C408   1.397       .  A
C407        F412   1.358       .  S
C408        C409   1.409       .  A
C408        H413   1.083       .  S
C409        C410   1.411       .  A
C410        F414   1.357       .  S
C411        C416   1.405       .  A
C411        C420   1.403       .  A
C416        C417   1.394       .  A
C416        F421   1.358       .  S
C417        C418   1.405       .  A
C417        H422   1.083       .  S
C418        C419   1.410       .  A
C419        C420   1.399       .  A
C419        F423   1.358       .  S
C420        H424   1.083       .  S
C425        C426   1.402       .  A
C425        C430   1.395       .  A
C425        H435   1.084       .  S
C426        C431   1.482       .  S
C426        C427   1.406       .  A
C427        C428   1.406       .  A
C427        F432   1.357       .  S
C428        C429   1.408       .  A
C428        H433   1.083       .  S
C429        C430   1.409       .  A
C430        F434   1.358       .  S
C431        C436   1.406       .  A
C431        C440   1.402       .  A
C436        C437   1.406       .  A
C436        F441   1.357       .  S
C437        C438   1.407       .  A
C437        H442   1.083       .  S
C438        C439   1.407       .  A
C439        C440   1.395       .  A
C439        F443   1.358       .  S
C440        H444   1.084       .  S
C445        C446   1.402       .  A
C445        C450   1.398       .  A
C445        H455   1.083       .  S
C446        C451   1.478       .  S
C446        C447   1.405       .  A
C447        C448   1.403       .  A
C447        F452   1.357       .  S
C448        C449   1.405       .  A
C448        H453   1.083       .  S
C449        C450   1.406       .  A
C450        F454   1.358       .  S
C451        C456   1.404       .  A
C451        C460   1.402       .  A
C456        C457   1.404       .  A
C456        F461   1.357       .  S
C457        C458   1.406       .  A
C457        H462   1.083       .  S
C458        C459   1.408       .  A
C459        C460   1.397       .  A
C459        F463   1.358       .  S
C460        H464   1.084       .  S
C465        C466   1.402       .  A
C465        C470   1.398       .  A
C465        H475   1.083       .  S
C466        C471   1.479       .  S
C466        C467   1.405       .  A
C467        C468   1.398       .  A
C467        F472   1.358       .  S
C468        C469   1.407       .  A
C468        H473   1.083       .  S
C469        C470   1.410       .  A
C470        F474   1.357       .  S
C471        C476   1.404       .  A
C471        C480   1.402       .  A
C476        C477   1.397       .  A
C476        F481   1.357       .  S
C477        C478   1.407       .  A
C477        H482   1.083       .  S
C478        C479   1.412       .  A
C479        C480   1.398       .  A
C479        F483   1.358       .  S
C480        H484   1.083       .  S
C485        C486   1.402       .  A
C485        C490   1.400       .  A
C485        H495   1.083       .  S
C486        C491   1.472       .  S
C486        C487   1.400       .  A
C487        C488   1.396       .  A
C487        F492   1.357       .  S
C488        C489   1.409       .  A
C488        H493   1.083       .  S
C489        C490   1.411       .  A
C490        F494   1.358       .  S
C491        C496   1.402       .  A
C491        C500   1.400       .  A
C496        C497   1.397       .  A
C496        F501   1.357       .  S
C497        C498   1.406       .  A
C497        H502   1.083       .  S
C498        C499   1.412       .  A
C499        C500   1.399       .  A
C499        F503   1.358       .  S
C500        H504   1.083       .  S
C505        C506   1.401       .  A
C505        C510   1.400       .  A
C505        H515   1.083       .  S
C506        C511   1.480       .  S
C506        C507   1.404       .  A
C507        C508   1.398       .  A
C507        F512   1.357       .  S
C508        C509   1.407       .  A
C508        H513   1.083       .  S
C509        C510   1.414       .  A
C510        F514   1.357       .  S
C511        C516   1.405       .  A
C511        C520   1.401       .  A
C516        C517   1.401       .  A
C516        F521   1.357       .  S
C517        C518   1.406       .  A
C517        H522   1.083       .  S
C518        C519   1.411       .  A
C519        C520   1.399       .  A
C519        F523   1.358       .  S
C520        H524   1.084       .  S
C525        C526   1.402       .  A
C525        C530   1.399       .  A
C525        H535   1.083       .  S
C526        C531   1.482   1_565  S
C526        C527   1.405       .  A
C527        C528   1.402       .  A
C527        F532   1.358       .  S
C528        C529   1.409       .  A
C528        H533   1.083       .  S
C529        C530   1.411       .  A
C530        F534   1.357       .  S
C531        C536   1.405       .  A
C531        C540   1.403       .  A
C536        C537   1.401       .  A
C536        F541   1.357       .  S
C537        C538   1.407       .  A
C537        H542   1.083       .  S
C538        C539   1.409       .  A
C539        C540   1.398       .  A
C539        F543   1.358       .  S
C540        H544   1.083       .  S
C545        C546   1.401       .  A
C545        C550   1.400       .  A
C545        H555   1.083       .  S
C546        C551   1.476       .  S
C546        C547   1.403       .  A
C547        C548   1.397       .  A
C547        F552   1.358       .  S
C548        C549   1.408       .  A
C548        H553   1.083       .  S
C549        C550   1.413       .  A
C550        F554   1.357       .  S
C551        C556   1.402       .  A
C551        C560   1.401       .  A
C556        C557   1.395       .  A
C556        F561   1.358       .  S
C557        C558   1.407       .  A
C557        H562   1.083       .  S
C558        C559   1.414       .  A
C559        C560   1.402       .  A
C559        F563   1.357       .  S
C560        H564   1.083       .  S
C565        C566   1.404   1_554  A
C565        C570   1.403       .  A
C565        H575   1.083       .  S
C566        C571   1.486   1_545  S
C566        C567   1.405       .  A
C567        C568   1.399       .  A
C567        F572   1.358       .  S
C568        C569   1.409       .  A
C568        H573   1.083       .  S
C569        C570   1.412   1_556  A
C570        F574   1.357       .  S
C571        C576   1.405   1_556  A
C571        C580   1.404       .  A
C576        C577   1.399       .  A
C576        F581   1.358       .  S
C577        C578   1.409       .  A
C577        H582   1.083       .  S
C578        C579   1.412   1_554  A
C579        C580   1.404       .  A
C579        F583   1.357       .  S
C580        H584   1.083       .  S
C585        C586   1.405       .  A
C585        C590   1.399       .  A
C585        H595   1.083       .  S
C586        C591   1.482       .  S
C586        C587   1.406       .  A
C587        C588   1.401       .  A
C587        F592   1.357       .  S
C588        C589   1.403       .  A
C588        H593   1.083       .  S
C589        C590   1.405       .  A
C590        F594   1.358       .  S
C591        C596   1.405       .  A
C591        C600   1.405       .  A
C596        C597   1.401       .  A
C596        F601   1.357       .  S
C597        C598   1.404       .  A
C597        H602   1.084       .  S
C598        C599   1.405       .  A
C599        C600   1.401       .  A
C599        F603   1.358       .  S
C600        H604   1.083       .  S
C605        C606   1.404       .  A
C605        C610   1.392       .  A
C605        H615   1.084       .  S
C606        C611   1.484       .  S
C606        C607   1.407       .  A
C607        C608   1.407       .  A
C607        F612   1.357       .  S
C608        C609   1.408       .  A
C608        H613   1.083       .  S
C609        C610   1.406       .  A
C610        F614   1.358       .  S
C611        C616   1.408       .  A
C611        C620   1.402       .  A
C616        C617   1.408       .  A
C616        F621   1.357       .  S
C617        C618   1.408       .  A
C617        H622   1.083       .  S
C618        C619   1.408       .  A
C619        C620   1.390       .  A
C619        F623   1.358       .  S
C620        H624   1.084       .  S
C625        C626   1.403       .  A
C625        C630   1.399       .  A
C625        H635   1.083       .  S
C626        C631   1.482   1_655  S
C626        C627   1.406       .  A
C627        C628   1.400       .  A
C627        F632   1.357       .  S
C628        C629   1.406       .  A
C628        H633   1.083       .  S
C629        C630   1.409       .  A
C630        F634   1.358       .  S
C631        C636   1.405       .  A
C631        C640   1.402       .  A
C636        C637   1.399       .  A
C636        F641   1.358       .  S
C637        C638   1.409       .  A
C637        H642   1.083       .  S
C638        C639   1.412       .  A
C639        C640   1.400       .  A
C639        F643   1.357       .  S
C640        H644   1.083       .  S
C645        C646   1.398       .  A
C645        C650   1.396       .  A
C645        H655   1.084       .  S
C646        C651   1.465       .  S
C646        C647   1.400       .  A
C647        C648   1.395       .  A
C647        F652   1.357       .  S
C648        C649   1.406       .  A
C648        H653   1.083       .  S
C649        C650   1.412       .  A
C650        F654   1.358       .  S
C651        C656   1.400       .  A
C651        C660   1.398       .  A
C656        C657   1.397       .  A
C656        F661   1.357       .  S
C657        C658   1.410       .  A
C657        H662   1.083       .  S
C658        C659   1.411       .  A
C659        C660   1.393       .  A
C659        F663   1.357       .  S
C660        H664   1.084       .  S
C665        C666   1.404       .  A
C665        C670   1.402       .  A
C665        H675   1.083       .  S
C666        C671   1.481       .  S
C666        C667   1.403       .  A
C667        C668   1.397   1_556  A
C667        F672   1.358   1_556  S
C668        C669   1.408   1_554  A
C668        H673   1.083       .  S
C669        C670   1.411       .  A
C670        F674   1.357       .  S
C671        C676   1.406       .  A
C671        C680   1.401       .  A
C676        C677   1.399       .  A
C676        F681   1.357   1_556  S
C677        C678   1.405       .  A
C677        H682   1.083       .  S
C678        C679   1.413       .  A
C679        C680   1.399       .  A
C679        F683   1.358       .  S
C680        H684   1.083       .  S
C685        C686   1.404       .  A
C685        C690   1.400       .  A
C685        H695   1.083       .  S
C686        C691   1.486   1_455  S
C686        C687   1.406       .  A
C687        C688   1.399       .  A
C687        F692   1.357       .  S
C688        C689   1.407       .  A
C688        H693   1.083       .  S
C689        C690   1.411       .  A
C690        F694   1.358       .  S
C691        C696   1.407       .  A
C691        C700   1.403       .  A
C696        C697   1.402       .  A
C696        F701   1.357       .  S
C697        C698   1.407       .  A
C697        H702   1.083       .  S
C698        C699   1.410       .  A
C699        C700   1.397       .  A
C699        F703   1.358       .  S
C700        H704   1.083       .  S
C705        C706   1.398       .  A
C705        C710   1.395       .  A
C705        H715   1.084       .  S
C706        C711   1.473       .  S
C706        C707   1.403       .  A
C707        C708   1.402       .  A
C707        F712   1.357       .  S
C708        C709   1.409       .  A
C708        H713   1.083       .  S
C709        C710   1.413       .  A
C710        F714   1.358       .  S
C711        C716   1.403       .  A
C711        C720   1.402       .  A
C716        C717   1.399       .  A
C716        F721   1.357       .  S
C717        C718   1.406       .  A
C717        H722   1.083       .  S
C718        C719   1.408       .  A
C719        C720   1.399       .  A
C719        F723   1.358       .  S
C720        H724   1.083       .  S
C725        C726   1.402       .  A
C725        C730   1.396       .  A
C725        H735   1.084       .  S
C726        C731   1.479       .  S
C726        C727   1.405       .  A
C727        C728   1.406       .  A
C727        F732   1.357       .  S
C728        C729   1.407       .  A
C728        H733   1.083       .  S
C729        C730   1.407       .  A
C730        F734   1.358       .  S
C731        C736   1.406       .  A
C731        C740   1.401       .  A
C736        C737   1.408       .  A
C736        F741   1.357       .  S
C737        C738   1.408       .  A
C737        H742   1.083       .  S
C738        C739   1.407       .  A
C739        C740   1.395       .  A
C739        F743   1.358       .  S
C740        H744   1.084       .  S
C745        C746   1.404       .  A
C745        C750   1.406       .  A
C745        H755   1.083       .  S
C746        C751   1.481       .  S
C746        C747   1.404       .  A
C747        C748   1.396       .  A
C747        F752   1.358       .  S
C748        C749   1.404       .  A
C748        H753   1.084       .  S
C749        C750   1.409       .  A
C750        F754   1.357       .  S
C751        C756   1.403       .  A
C751        C760   1.404       .  A
C756        C757   1.395       .  A
C756        F761   1.358       .  S
C757        C758   1.405       .  A
C757        H762   1.084       .  S
C758        C759   1.411       .  A
C759        C760   1.407       .  A
C759        F763   1.357       .  S
C760        H764   1.083       .  S
C765        C766   1.405       .  A
C765        C770   1.401       .  A
C765        H775   1.082       .  S
C766        C771   1.486       .  S
C766        C767   1.407       .  A
C767        C768   1.400       .  A
C767        F772   1.358       .  S
C768        C769   1.405       .  A
C768        H773   1.083       .  S
C769        C770   1.408       .  A
C770        F774   1.357       .  S
C771        C776   1.405       .  A
C771        C780   1.404       .  A
C776        C777   1.401       .  A
C776        F781   1.358       .  S
C777        C778   1.409       .  A
C777        H782   1.083       .  S
C778        C779   1.411       .  A
C779        C780   1.401       .  A
C779        F783   1.357       .  S
C780        H784   1.083       .  S
C785        C786   1.405       .  A
C785        C790   1.401       .  A
C785        H795   1.083       .  S
C786        C791   1.489   1_565  S
C786        C787   1.407       .  A
C787        C788   1.402       .  A
C787        F792   1.358       .  S
C788        C789   1.407       .  A
C788        H793   1.083       .  S
C789        C790   1.409       .  A
C790        F794   1.357       .  S
C791        C796   1.406       .  A
C791        C800   1.404       .  A
C796        C797   1.402       .  A
C796        F801   1.357       .  S
C797        C798   1.409       .  A
C797        H802   1.083       .  S
C798        C799   1.413       .  A
C799        C800   1.400       .  A
C799        F803   1.357       .  S
C800        H804   1.083       .  S
C805        C806   1.402       .  A
C805        C810   1.403       .  A
C805        H815   1.083       .  S
C806        C811   1.480   1_655  S
C806        C807   1.402       .  A
C807        C808   1.399       .  A
C807        F812   1.358       .  S
C808        C809   1.410       .  A
C808        H813   1.083       .  S
C809        C810   1.413       .  A
C810        F814   1.357       .  S
C811        C816   1.404       .  A
C811        C820   1.401       .  A
C816        C817   1.399       .  A
C816        F821   1.357       .  S
C817        C818   1.408       .  A
C817        H822   1.083       .  S
C818        C819   1.414       .  A
C819        C820   1.401       .  A
C819        F823   1.357       .  S
C820        H824   1.083       .  S
C825        C826   1.402       .  A
C825        C830   1.399       .  A
C825        H835   1.083       .  S
C826        C831   1.478       .  S
C826        C827   1.404       .  A
C827        C828   1.399       .  A
C827        F832   1.357       .  S
C828        C829   1.407       .  A
C828        H833   1.083       .  S
C829        C830   1.410       .  A
C830        F834   1.358       .  S
C831        C836   1.404       .  A
C831        C840   1.400       .  A
C836        C837   1.400       .  A
C836        F841   1.358       .  S
C837        C838   1.408       .  A
C837        H842   1.083       .  S
C838        C839   1.413       .  A
C839        C840   1.399       .  A
C839        F843   1.357       .  S
C840        H844   1.083       .  S
C845        C846   1.400       .  A
C845        C850   1.396       .  A
C845        H855   1.084       .  S
C846        C851   1.469       .  S
C846        C847   1.402       .  A
C847        C848   1.394       .  A
C847        F852   1.358       .  S
C848        C849   1.407       .  A
C848        H853   1.084       .  S
C849        C850   1.409       .  A
C850        F854   1.357       .  S
C851        C856   1.401       .  A
C851        C860   1.400       .  A
C856        C857   1.395       .  A
C856        F861   1.358       .  S
C857        C858   1.408       .  A
C857        H862   1.083       .  S
C858        C859   1.412       .  A
C859        C860   1.396       .  A
C859        F863   1.357       .  S
C860        H864   1.084       .  S
C865        C866   1.400       .  A
C865        C870   1.397       .  A
C865        H875   1.084       .  S
C866        C871   1.479   1_545  S
C866        C867   1.405       .  A
C867        C868   1.402       .  A
C867        F872   1.357       .  S
C868        C869   1.408       .  A
C868        H873   1.083       .  S
C869        C870   1.413       .  A
C870        F874   1.357       .  S
C871        C876   1.404       .  A
C871        C880   1.401       .  A
C876        C877   1.398       .  A
C876        F881   1.357       .  S
C877        C878   1.407       .  A
C877        H882   1.083       .  S
C878        C879   1.414       .  A
C879        C880   1.401       .  A
C879        F883   1.357       .  S
C880        H884   1.083       .  S
C885        C886   1.403       .  A
C885        C890   1.397       .  A
C885        H895   1.083       .  S
C886        C891   1.482   1_655  S
C886        C887   1.406       .  A
C887        C888   1.401       .  A
C887        F892   1.357       .  S
C888        C889   1.406       .  A
C888        H893   1.083       .  S
C889        C890   1.409       .  A
C890        F894   1.358       .  S
C891        C896   1.404       .  A
C891        C900   1.403       .  A
C896        C897   1.396       .  A
C896        F901   1.358       .  S
C897        C898   1.407       .  A
C897        H902   1.083       .  S
C898        C899   1.413       .  A
C899        C900   1.402       .  A
C899        F903   1.357       .  S
C900        H904   1.083       .  S
C905        C906   1.403       .  A
C905        C910   1.399       .  A
C905        H915   1.083       .  S
C906        C911   1.481       .  S
C906        C907   1.406       .  A
C907        C908   1.403       .  A
C907        F912   1.357       .  S
C908        C909   1.405       .  A
C908        H913   1.083       .  S
C909        C910   1.407       .  A
C910        F914   1.358       .  S
C911        C916   1.405   1_556  A
C911        C920   1.404       .  A
C916        C917   1.403       .  A
C916        F921   1.357   1_554  S
C917        C918   1.405       .  A
C917        H922   1.084       .  S
C918        C919   1.405       .  A
C919        C920   1.400   1_554  A
C919        F923   1.357       .  S
C920        H924   1.083       .  S
C925        C926   1.402       .  A
C925        C930   1.395       .  A
C925        H935   1.084       .  S
C926        C931   1.482       .  S
C926        C927   1.406       .  A
C927        C928   1.407       .  A
C927        F932   1.357       .  S
C928        C929   1.409       .  A
C928        H933   1.083       .  S
C929        C930   1.407       .  A
C930        F934   1.358       .  S
C931        C936   1.406       .  A
C931        C940   1.402       .  A
C936        C937   1.407       .  A
C936        F941   1.357       .  S
C937        C938   1.408       .  A
C937        H942   1.083       .  S
C938        C939   1.408       .  A
C939        C940   1.395       .  A
C939        F943   1.358       .  S
C940        H944   1.084       .  S
C945        C946   1.404       .  A
C945        C950   1.396       .  A
C945        H955   1.083       .  S
C946        C951   1.483       .  S
C946        C947   1.408       .  A
C947        C948   1.401       .  A
C947        F952   1.357       .  S
C948        C949   1.405       .  A
C948        H953   1.083       .  S
C949        C950   1.406       .  A
C950        F954   1.358       .  S
C951        C956   1.407       .  A
C951        C960   1.402       .  A
C956        C957   1.398       .  A
C956        F961   1.358       .  S
C957        C958   1.407       .  A
C957        H962   1.083       .  S
C958        C959   1.413       .  A
C959        C960   1.399       .  A
C959        F963   1.357       .  S
C960        H964   1.083       .  S
C965        C966   1.404       .  A
C965        C970   1.397       .  A
C965        H975   1.083       .  S
C966        C971   1.484       .  S
C966        C967   1.405       .  A
C967        C968   1.401       .  A
C967        F972   1.357       .  S
C968        C969   1.408       .  A
C968        H973   1.083       .  S
C969        C970   1.410       .  A
C970        F974   1.357       .  S
C971        C976   1.405       .  A
C971        C980   1.405       .  A
C976        C977   1.396       .  A
C976        F981   1.358       .  S
C977        C978   1.408       .  A
C977        H982   1.083       .  S
C978        C979   1.411       .  A
C979        C980   1.402       .  A
C979        F983   1.357       .  S
C980        H984   1.083       .  S
