geometry optimzed in LAMMPS
_audit_creation_date              2020-11-30 
_audit_creation_method            'lammps2cif' 
_symmetry_space_group_name_H-M    'P1' 
_symmetry_Int_Tables_number       1 
_symmetry_cell_setting            triclinic 
loop_ 
_symmetry_equiv_pos_as_xyz 
  x,y,z 
_cell_length_a                    41.64652672916405 
_cell_length_b                    41.396892774122314 
_cell_length_c                    41.7328543823286 
_cell_angle_alpha                 90.19730409853807 
_cell_angle_beta                  90.19551594201741 
_cell_angle_gamma                 89.87143539418113 
loop_ 
_atom_site_label 
_atom_site_type_symbol 
_atom_site_fract_x 
_atom_site_fract_y 
_atom_site_fract_z 
_atom_site_charge 
C1          C  0.12522618  0.75378516  0.36918434    -0.02760
C2          C  0.73049133  0.15298557  0.65613145    -0.02760
C3          C  0.33447190  0.14675000  0.76196880    -0.02760
C4          C  0.12563446  0.65211763  0.76573091    -0.02760
C5          C  0.62200357  0.75356444  0.15929461    -0.02760
C6          C  0.73151423  0.36130057  0.15891282    -0.02760
C7          C  0.12821208  0.75388869  0.66448099    -0.02760
C8          C  0.72805810  0.15379740  0.36617892    -0.02760
C9          C  0.63290363  0.15397548  0.76130935    -0.02760
C10         C  0.12910117  0.35427209  0.76667811    -0.02760
C11         C  0.32838246  0.75543904  0.16274931    -0.02760
C12         C  0.72811611  0.65519166  0.15683228    -0.02760
C13         C  0.32931466  0.75272475  0.86084218    -0.02760
C14         C  0.73150234  0.65287920  0.87209976    -0.02760
C15         C  0.82948992  0.36230734  0.76525946    -0.02760
C16         C  0.62660404  0.85680025  0.76564420    -0.02760
C17         C  0.73089441  0.85255724  0.36347320    -0.02760
C18         C  0.83293989  0.75264479  0.66192733    -0.02760
C19         C  0.62464017  0.75354663  0.86891835    -0.02760
C20         C  0.72896735  0.35406092  0.86499214    -0.02760
C21         C  0.82765378  0.65492621  0.76620028    -0.02760
C22         C  0.33250796  0.85525942  0.75963112    -0.02760
C23         C  0.72800196  0.85358863  0.66309776    -0.02760
O24         O  0.85745572  0.64959115  0.47929138    -0.72050
O25         O  0.85628912  0.58612437  0.54449775    -0.72270
O26         O  0.85749657  0.58471968  0.47979407    -0.72130
O27         O  0.85562530  0.65116867  0.54333779    -0.72130
O28         O  0.80341011  0.65058336  0.54187379    -0.72090
O29         O  0.80532473  0.58474815  0.47851745    -0.72110
O30         O  0.80411515  0.58567061  0.54305008    -0.72060
O31         O  0.80521417  0.64961766  0.47787573    -0.72240
V32         V  0.85571093  0.61786145  0.51171890     1.35240
V33         V  0.80554985  0.61763802  0.51036672     1.35170
C34         C  0.83161585  0.66028533  0.46755817     0.77190
C35         C  0.83007827  0.57519932  0.55501879     0.77250
C36         C  0.83160439  0.57370390  0.46810307     0.77120
C37         C  0.82905777  0.66207538  0.55329085     0.77080
O38         O  0.85493819  0.47735740  0.65883522    -0.72050
O39         O  0.85577909  0.54081210  0.59292400    -0.72270
O40         O  0.85334935  0.54187438  0.65752215    -0.72130
O41         O  0.85738071  0.47589513  0.59404993    -0.72130
O42         O  0.80523216  0.47521795  0.59200438    -0.72090
O43         O  0.80126661  0.54106666  0.65553164    -0.72110
O44         O  0.80362884  0.53993363  0.59108351    -0.72060
O45         O  0.80279911  0.47626720  0.65639515    -0.72240
V46         V  0.85436483  0.50901279  0.62576787     1.35240
V47         V  0.80427002  0.50812944  0.62379291     1.35170
C48         C  0.82863203  0.46600987  0.66874378     0.77190
C49         C  0.82983301  0.55102053  0.58071018     0.77250
C50         C  0.82671601  0.55221663  0.66784379     0.77120
C51         C  0.83187009  0.46448604  0.58207063     0.77080
O52         O  0.62087245  0.11809953  0.47930434    -0.72050
O53         O  0.55798805  0.11698885  0.54476860    -0.72270
O54         O  0.55643139  0.11631527  0.48068925    -0.72130
O55         O  0.62245851  0.11861611  0.54346709    -0.72130
O56         O  0.61978413  0.17103999  0.54379075    -0.72090
O57         O  0.55585855  0.16886751  0.47993306    -0.72110
O58         O  0.55572374  0.16947353  0.54377167    -0.72060
O59         O  0.62000905  0.17061331  0.47993533    -0.72240
V60         V  0.58941752  0.11847347  0.51204567     1.35240
V61         V  0.58790458  0.16893951  0.51183519     1.35170
C62         C  0.63109223  0.14462843  0.46850860     0.77190
C63         C  0.54601165  0.14306248  0.55515937     0.77250
C64         C  0.54493817  0.14233179  0.46983197     0.77120
C65         C  0.63198499  0.14535798  0.55459329     0.77080
O66         O  0.45187786  0.16653895  0.66117078    -0.72050
O67         O  0.51014727  0.16861775  0.59130798    -0.72270
O68         O  0.44585514  0.16753613  0.59673724    -0.72130
O69         O  0.51578760  0.16828554  0.65495119    -0.72130
O70         O  0.51645981  0.11590728  0.65586732    -0.72090
O71         O  0.44775449  0.11512126  0.59464203    -0.72110
O72         O  0.51239811  0.11613547  0.59170453    -0.72060
O73         O  0.45221103  0.11402470  0.65920448    -0.72240
V74         V  0.48087273  0.16670060  0.62603358     1.35240
V75         V  0.48212195  0.11628413  0.62534471     1.35170
C76         C  0.44220731  0.13978135  0.67195238     0.77190
C77         C  0.52174655  0.14263532  0.58026096     0.77250
C78         C  0.43519935  0.14140313  0.58521576     0.77120
C79         C  0.52820493  0.14250028  0.66536286     0.77080
O80         O  0.10709337  0.47095747  0.66120818    -0.72050
O81         O  0.10415917  0.53769849  0.59923309    -0.72270
O82         O  0.10257230  0.47319412  0.59738428    -0.72130
O83         O  0.10838328  0.53544194  0.66396732    -0.72130
O84         O  0.16047049  0.53475495  0.66024185    -0.72090
O85         O  0.15471179  0.47155342  0.59477037    -0.72110
O86         O  0.15619884  0.53599414  0.59564588    -0.72060
O87         O  0.15918444  0.47007951  0.65861939    -0.72240
V88         V  0.10656592  0.50438944  0.63045335     1.35240
V89         V  0.15662824  0.50320886  0.62740684     1.35170
C90         C  0.13354792  0.45886453  0.67013916     0.77190
C91         C  0.12968315  0.54745217  0.58613127     0.77250
C92         C  0.12772468  0.46168337  0.58500698     0.77120
C93         C  0.13537874  0.54557473  0.67343809     0.77080
O94         O  0.15205495  0.64615491  0.48349924    -0.72050
O95         O  0.15430010  0.58121649  0.54747643    -0.72270
O96         O  0.15235036  0.58143950  0.48268930    -0.72130
O97         O  0.15414241  0.64577071  0.54784486    -0.72130
O98         O  0.10212748  0.64666531  0.54837844    -0.72090
O99         O  0.10023166  0.58050587  0.48475591    -0.72110
O100        O  0.10217708  0.58200414  0.54972773    -0.72060
O101        O  0.09993943  0.64514668  0.48382995    -0.72240
V102        V  0.15218214  0.61359373  0.51537263     1.35240
V103        V  0.10210933  0.61353904  0.51666349     1.35170
C104        C  0.12564458  0.65639164  0.47240113     0.77190
C105        C  0.12865066  0.57122011  0.56011577     0.77250
C106        C  0.12602960  0.57028601  0.47234228     0.77120
C107        C  0.12850481  0.65719099  0.55939237     0.77080
O108        O  0.45066796  0.88464694  0.65618009    -0.72050
O109        O  0.51585612  0.88506739  0.59239695    -0.72270
O110        O  0.45121564  0.88617356  0.59170721    -0.72130
O111        O  0.51478325  0.88354068  0.65700484    -0.72130
O112        O  0.51312678  0.83117422  0.65688345    -0.72090
O113        O  0.45148134  0.83370611  0.58947528    -0.72110
O114        O  0.51607121  0.83258416  0.59203632    -0.72060
O115        O  0.44909201  0.83229160  0.65377475    -0.72240
V116        V  0.48315769  0.88383925  0.62423499     1.35240
V117        V  0.48251138  0.83345352  0.62298627     1.35170
C118        C  0.43918011  0.85832116  0.66626897     0.77190
C119        C  0.52707918  0.85888480  0.58135170     0.77250
C120        C  0.44044484  0.86035821  0.57957308     0.77120
C121        C  0.52407385  0.85701090  0.66885384     0.77080
O122        O  0.62560087  0.83310560  0.47878509    -0.72050
O123        O  0.56232187  0.83283800  0.54438452    -0.72270
O124        O  0.56056951  0.83425088  0.47979638    -0.72130
O125        O  0.62731985  0.83176542  0.54252620    -0.72130
O126        O  0.62802507  0.88418672  0.54323209    -0.72090
O127        O  0.56079237  0.88670811  0.48114268    -0.72110
O128        O  0.56315120  0.88529718  0.54574376    -0.72060
O129        O  0.62564950  0.88563469  0.47947651    -0.72240
V130        V  0.59384520  0.83401608  0.51138387     1.35240
V131        V  0.59434818  0.88442861  0.51242395     1.35170
C132        C  0.63669507  0.85942863  0.46841127     0.77190
C133        C  0.55196082  0.85901071  0.55626321     0.77250
C134        C  0.54930498  0.86082125  0.46972748     0.77120
C135        C  0.63976779  0.85765228  0.55279701     0.77080
O136        O  0.62041364  0.54060985  0.13354206    -0.72050
O137        O  0.55773509  0.47413288  0.13122078    -0.72270
O138        O  0.55583526  0.53921118  0.13268228    -0.72130
O139        O  0.62225139  0.47603274  0.13204938    -0.72130
O140        O  0.62363497  0.47636547  0.18401040    -0.72090
O141        O  0.55460821  0.53692148  0.18467767    -0.72110
O142        O  0.55888563  0.47205848  0.18324138    -0.72060
O143        O  0.61895058  0.54098229  0.18550156    -0.72240
V144        V  0.58904914  0.50749470  0.13338343     1.35240
V145        V  0.58895103  0.50656063  0.18335966     1.35170
C146        C  0.63039805  0.55215837  0.15985374     0.77190
C147        C  0.54783664  0.46159032  0.15691642     0.77250
C148        C  0.54385338  0.54876388  0.15885648     0.77120
C149        C  0.63458849  0.46567433  0.15778080     0.77080
O150        O  0.50635932  0.64788131  0.18909721    -0.72050
O151        O  0.44267749  0.58240706  0.18629254    -0.72270
O152        O  0.50710611  0.58292335  0.18604565    -0.72130
O153        O  0.44266216  0.64757907  0.18970502    -0.72130
O154        O  0.44178831  0.65021857  0.13779530    -0.72090
O155        O  0.50701996  0.58547101  0.13404232    -0.72110
O156        O  0.44228811  0.58460374  0.13427783    -0.72060
O157        O  0.50547280  0.65079432  0.13712408    -0.72240
V158        V  0.47464491  0.61515245  0.18672722     1.35240
V159        V  0.47410403  0.61758537  0.13677660     1.35170
C160        C  0.51587675  0.66126232  0.16365853     0.77190
C161        C  0.43186811  0.57209457  0.15981644     0.77250
C162        C  0.51824105  0.57331057  0.15955933     0.77120
C163        C  0.43211011  0.66085796  0.16457664     0.77080
O164        O  0.44774541  0.64709726  0.83964048    -0.72050
O165        O  0.51130233  0.58087769  0.84228578    -0.72270
O166        O  0.44637388  0.58189564  0.84062387    -0.72130
O167        O  0.51153420  0.64561754  0.84048063    -0.72130
O168        O  0.50962184  0.64876614  0.89241223    -0.72090
O169        O  0.44622306  0.58241231  0.89268246    -0.72110
O170        O  0.51135096  0.58350291  0.89428633    -0.72060
O171        O  0.44578111  0.64768755  0.89159402    -0.72240
V172        V  0.47915786  0.61379211  0.84179993     1.35240
V173        V  0.47826757  0.61536196  0.89177299     1.35170
C174        C  0.43672127  0.65944585  0.86517766     0.77190
C175        C  0.52281011  0.57154415  0.86881527     0.77250
C176        C  0.43508568  0.57129002  0.86657334     0.77120
C177        C  0.52080583  0.65886899  0.86614640     0.77080
O178        O  0.62480481  0.47248448  0.89933119    -0.72050
O179        O  0.56015337  0.53765106  0.89653346    -0.72270
O180        O  0.56022114  0.47260518  0.89780803    -0.72130
O181        O  0.62536882  0.53703562  0.89817115    -0.72130
O182        O  0.62610929  0.53659915  0.84625319    -0.72090
O183        O  0.56213543  0.47099805  0.84580028    -0.72110
O184        O  0.56082263  0.53592703  0.84451219    -0.72060
O185        O  0.62694688  0.47240152  0.84728865    -0.72240
V186        V  0.59261961  0.50503244  0.89695245     1.35240
V187        V  0.59386663  0.50406012  0.84697990     1.35170
C188        C  0.63729569  0.46191517  0.87377791     0.77190
C189        C  0.54899015  0.54741972  0.87001517     0.77250
C190        C  0.55033071  0.46059145  0.87169652     0.77120
C191        C  0.63780879  0.54692852  0.87234823     0.77080
C192        C  0.62224727  0.15194364  0.26697634    -0.02760
C193        C  0.62821281  0.85502566  0.26311677    -0.02760
O194        O  0.60828082  0.04057762  0.87050362    -0.72050
O195        O  0.60671617  0.97466053  0.93389454    -0.72270
O196        O  0.60716307  0.03977045  0.93510578    -0.72130
O197        O  0.60763270  0.97616009  0.86934071    -0.72130
O198        O  0.65963068  0.97599324  0.86906894    -0.72090
O199        O  0.65929806  0.03837557  0.93666133    -0.72110
O200        O  0.65886556  0.97325412  0.93388706    -0.72060
O201        O  0.66030623  0.04062223  0.87219099    -0.72240
V202        V  0.60846821  0.00775450  0.90228659     1.35240
V203        V  0.65852445  0.00705603  0.90302231     1.35170
C204        C  0.63461836  0.05164094  0.86024509     0.77190
C205        C  0.63256612  0.96262741  0.94458969     0.77250
C206        C  0.63315865  0.04996815  0.94708787     0.77120
C207        C  0.63352151  0.96574894  0.85726405     0.77080
O208        O  0.65622336  0.86326451  0.04734252    -0.72050
O209        O  0.65791747  0.92567684  0.98051308    -0.72270
O210        O  0.65717141  0.92785615  0.04490588    -0.72130
O211        O  0.65742346  0.86050315  0.98339318    -0.72130
O212        O  0.60528193  0.86155237  0.98168050    -0.72090
O213        O  0.60495890  0.92799482  0.04470304    -0.72110
O214        O  0.60575112  0.92687926  0.98017863    -0.72060
O215        O  0.60404191  0.86314803  0.04547429    -0.72240
V216        V  0.65615836  0.89439465  0.01391734     1.35240
V217        V  0.60601401  0.89497825  0.01294102     1.35170
C218        C  0.62977962  0.85251728  0.05759756     0.77190
C219        C  0.63207153  0.93725506  0.96929820     0.77250
C220        C  0.63111307  0.93884021  0.05580822     0.77120
C221        C  0.63145352  0.84877292  0.97293201     0.77080
C222        C  0.62500618  0.25326457  0.86532600    -0.02760
O223        O  0.65991359  0.15022651  0.98428712    -0.72050
O224        O  0.65864352  0.08549316  0.04845305    -0.72270
O225        O  0.65913418  0.08520483  0.98406388    -0.72130
O226        O  0.65972410  0.15028984  0.04837018    -0.72130
O227        O  0.60757583  0.15061015  0.04869640    -0.72090
O228        O  0.60697776  0.08658707  0.98292077    -0.72110
O229        O  0.60644728  0.08574622  0.04746906    -0.72060
O230        O  0.60770367  0.15180945  0.98459917    -0.72240
V231        V  0.65831740  0.11779766  0.01629062     1.35240
V232        V  0.60817180  0.11863807  0.01591105     1.35170
C233        C  0.63400226  0.16215787  0.97377489     0.77190
C234        C  0.63233500  0.07464737  0.05886926     0.77250
C235        C  0.63303851  0.07486578  0.97242365     0.77120
C236        C  0.63382539  0.16181705  0.05922639     0.77080
O237        O  0.60627104  0.97211525  0.15693402    -0.72050
O238        O  0.60587449  0.03868979  0.09435272    -0.72270
O239        O  0.60545807  0.97399810  0.09258705    -0.72130
O240        O  0.60624256  0.03684618  0.15870712    -0.72130
O241        O  0.65835188  0.03705012  0.15860003    -0.72090
O242        O  0.65766397  0.97363899  0.09245664    -0.72110
O243        O  0.65807614  0.03829689  0.09430619    -0.72060
O244        O  0.65833229  0.97186368  0.15675229    -0.72240
V245        V  0.60697964  0.00542191  0.12567844     1.35240
V246        V  0.65709710  0.00521334  0.12556644     1.35170
C247        C  0.63239025  0.96043567  0.16743422     0.77190
C248        C  0.63201724  0.04959205  0.08354164     0.77250
C249        C  0.63140632  0.96322857  0.08120659     0.77120
C250        C  0.63227656  0.04788239  0.16982836     0.77080
C251        C  0.63347217  0.25535310  0.16715260    -0.02760
O252        O  0.29969738  0.85988859  0.97822270    -0.72050
O253        O  0.30200091  0.92187789  0.04597857    -0.72270
O254        O  0.30468759  0.92417506  0.98155381    -0.72130
O255        O  0.29640422  0.85702290  0.04230850    -0.72130
O256        O  0.34834088  0.85226066  0.04482467    -0.72090
O257        O  0.35668100  0.91990157  0.98341094    -0.72110
O258        O  0.35394693  0.91756974  0.04820382    -0.72060
O259        O  0.35166774  0.85523274  0.98095181    -0.72240
V260        V  0.30174796  0.89067023  0.01213416     1.35240
V261        V  0.35167700  0.88637541  0.01439627     1.35170
C262        C  0.32539154  0.84719505  0.96808354     0.77190
C263        C  0.32840714  0.93056783  0.05844019     0.77250
C264        C  0.33184632  0.93302254  0.97157039     0.77120
C265        C  0.32082019  0.84298459  0.05367669     0.77080
O266        O  0.36111746  0.96770720  0.87034168    -0.72050
O267        O  0.36198379  0.03201757  0.93582167    -0.72270
O268        O  0.36036180  0.96704807  0.93527213    -0.72130
O269        O  0.36295108  0.03241065  0.87122405    -0.72130
O270        O  0.31075659  0.03294387  0.86945524    -0.72090
O271        O  0.30823758  0.96966752  0.93499261    -0.72110
O272        O  0.30986030  0.03425160  0.93400278    -0.72060
O273        O  0.30898465  0.96827182  0.87057290    -0.72240
V274        V  0.36062370  0.99978023  0.90315857     1.35240
V275        V  0.31050948  0.00124127  0.90227586     1.35170
C276        C  0.33484323  0.95729747  0.85903337     0.77190
C277        C  0.33598596  0.04408326  0.94599194     0.77250
C278        C  0.33375030  0.95763195  0.94634807     0.77120
C279        C  0.33726503  0.04351122  0.85931649     0.77080
C280        C  0.32932085  0.85439603  0.26698978    -0.02760
O281        O  0.30254176  0.97028535  0.15865027    -0.72050
O282        O  0.30601046  0.03376512  0.09273933    -0.72270
O283        O  0.30354657  0.96855710  0.09366929    -0.72130
O284        O  0.30467579  0.03456231  0.15703367    -0.72130
O285        O  0.35676780  0.03384703  0.15725426    -0.72090
O286        O  0.35558649  0.96554408  0.09565388    -0.72110
O287        O  0.35809457  0.03087379  0.09297119    -0.72060
O288        O  0.35467225  0.96941909  0.16085905    -0.72240
V289        V  0.30523092  0.00168577  0.12545922     1.35240
V290        V  0.35529014  0.99985496  0.12657989     1.35170
C291        C  0.32800461  0.95991742  0.17172497     0.77190
C292        C  0.33266613  0.04350729  0.08197277     0.77250
C293        C  0.32928044  0.95575874  0.08374378     0.77120
C294        C  0.33081741  0.04542407  0.16802131     0.77080
O295        O  0.36288714  0.14548750  0.98339269    -0.72050
O296        O  0.36049366  0.07897916  0.04642130    -0.72270
O297        O  0.36201683  0.08035907  0.98192869    -0.72130
O298        O  0.36164298  0.14430890  0.04737235    -0.72130
O299        O  0.30959888  0.14742222  0.04431680    -0.72090
O300        O  0.30983717  0.07958205  0.98246307    -0.72110
O301        O  0.30840454  0.08189032  0.04688347    -0.72060
O302        O  0.31078053  0.14412069  0.98034966    -0.72240
V303        V  0.36077445  0.11227638  0.01479787     1.35240
V304        V  0.31066566  0.11321293  0.01361995     1.35170
C305        C  0.33710153  0.15572084  0.97092285     0.77190
C306        C  0.33395480  0.06913183  0.05742255     0.77250
C307        C  0.33597569  0.06898909  0.97114763     0.77120
C308        C  0.33572066  0.15746540  0.05619189     0.77080
C309        C  0.33805593  0.24826102  0.86396626    -0.02760
C310        C  0.13496363  0.65061046  0.26657611    -0.02760
C311        C  0.83415928  0.64949036  0.25485838    -0.02760
O312        O  0.00888095  0.67329313  0.86827911    -0.72050
O313        O  0.94860246  0.67146527  0.93566198    -0.72270
O314        O  0.01263428  0.67098745  0.93266762    -0.72130
O315        O  0.94525024  0.67328043  0.87144106    -0.72130
O316        O  0.94410932  0.62084817  0.87049859    -0.72090
O317        O  0.01329347  0.61853849  0.93013250    -0.72110
O318        O  0.94900896  0.61895228  0.93483193    -0.72060
O319        O  0.00815067  0.62099216  0.86516352    -0.72240
V320        V  0.97887343  0.67117924  0.90201891     1.35240
V321        V  0.97871822  0.62078617  0.90022069     1.35170
C322        C  0.01805562  0.64776099  0.85438859     0.77190
C323        C  0.93865971  0.64507196  0.94686514     0.77250
C324        C  0.02416769  0.64439272  0.94213307     0.77120
C325        C  0.93350741  0.64749669  0.86019993     0.77080
O326        O  0.84078199  0.62124306  0.04931068    -0.72050
O327        O  0.90431075  0.61928242  0.98426163    -0.72270
O328        O  0.90550070  0.61945110  0.04888735    -0.72130
O329        O  0.83991736  0.62140015  0.98504897    -0.72130
O330        O  0.84099617  0.67379395  0.98537139    -0.72090
O331        O  0.90655483  0.67193092  0.04890354    -0.72110
O332        O  0.90540836  0.67178358  0.98443731    -0.72060
O333        O  0.84197857  0.67367213  0.04925957    -0.72240
V334        V  0.87267485  0.62134276  0.01693021     1.35240
V335        V  0.87381371  0.67174918  0.01703874     1.35170
C336        C  0.83013640  0.64779523  0.05994715     0.77190
C337        C  0.91530248  0.64527112  0.97299858     0.77250
C338        C  0.91720195  0.64548826  0.05973693     0.77120
C339        C  0.82924960  0.64791740  0.97432135     0.77080
C340        C  0.23155242  0.64943326  0.86497177    -0.02760
O341        O  0.12485372  0.61666636  0.97764861    -0.72050
O342        O  0.06179826  0.61938340  0.04300280    -0.72270
O343        O  0.06005377  0.61770687  0.97819933    -0.72130
O344        O  0.12638222  0.61895492  0.04115403    -0.72130
O345        O  0.12653709  0.67131416  0.03988797    -0.72090
O346        O  0.06049345  0.67019968  0.97749339    -0.72110
O347        O  0.06208444  0.67187469  0.04206990    -0.72060
O348        O  0.12496081  0.66900790  0.97660256    -0.72240
V349        V  0.09306161  0.61916341  0.00999112     1.35240
V350        V  0.09334928  0.66955148  0.00896601     1.35170
C351        C  0.13685664  0.64247848  0.96714168     0.77190
C352        C  0.05172147  0.64596092  0.05414164     0.77250
C353        C  0.04931379  0.64393744  0.96686006     0.77120
C354        C  0.13858102  0.64542775  0.05035004     0.77080
O355        O  0.95689167  0.67163467  0.15992648    -0.72050
O356        O  0.01778889  0.67259613  0.09195282    -0.72270
O357        O  0.95342829  0.67168883  0.09535728    -0.72130
O358        O  0.02110257  0.67298982  0.15664732    -0.72130
O359        O  0.02124105  0.62061844  0.15745493    -0.72090
O360        O  0.95486698  0.61921621  0.09434201    -0.72110
O361        O  0.01926178  0.62012112  0.09274170    -0.72060
O362        O  0.95713766  0.61910548  0.15871807    -0.72240
V363        V  0.98735276  0.67122287  0.12595868     1.35240
V364        V  0.98820470  0.62080001  0.12581803     1.35170
C365        C  0.94653101  0.64506483  0.17056257     0.77190
C366        C  0.02865866  0.64636200  0.08066479     0.77250
C367        C  0.94279241  0.64535710  0.08419229     0.77120
C368        C  0.03204711  0.64705376  0.16831825     0.77080
C369        C  0.22992977  0.64803330  0.15777904    -0.02760
O370        O  0.83770705  0.39234076  0.98008544    -0.72050
O371        O  0.90068403  0.39100263  0.04702402    -0.72270
O372        O  0.90215809  0.39027290  0.98241316    -0.72130
O373        O  0.83567684  0.39410914  0.04412424    -0.72130
O374        O  0.83180958  0.34188271  0.04351590    -0.72090
O375        O  0.90164657  0.33782553  0.98433350    -0.72110
O376        O  0.89687109  0.33870363  0.04869901    -0.72060
O377        O  0.83776076  0.33990721  0.97999907    -0.72240
V378        V  0.86907842  0.39094499  0.01353753     1.35240
V379        V  0.86712986  0.34061056  0.01428484     1.35170
C380        C  0.82727623  0.36602024  0.96854552     0.77190
C381        C  0.90966546  0.36433440  0.05900677     0.77250
C382        C  0.91295434  0.36354664  0.97250276     0.77120
C383        C  0.82137852  0.36895855  0.05335981     0.77080
O384        O  0.94531752  0.33796049  0.87123702    -0.72050
O385        O  0.01203254  0.33317037  0.93383230    -0.72270
O386        O  0.94749619  0.33622049  0.93592524    -0.72130
O387        O  0.00961743  0.33470691  0.86958121    -0.72130
O388        O  0.01353020  0.38691209  0.87188949    -0.72090
O389        O  0.94898040  0.38869255  0.93615389    -0.72110
O390        O  0.01363064  0.38558955  0.93610331    -0.72060
O391        O  0.94911263  0.39031894  0.87134154    -0.72240
V392        V  0.97864440  0.33654146  0.90267001     1.35240
V393        V  0.98118239  0.38687698  0.90387975     1.35170
C394        C  0.93635824  0.36494661  0.86018051     0.77190
C395        C  0.02419316  0.35859029  0.94558876     0.77250
C396        C  0.93758391  0.36273470  0.94730307     0.77120
C397        C  0.02240106  0.36039764  0.85960932     0.77080
O398        O  0.95038502  0.38403744  0.15996860    -0.72050
O399        O  0.01270186  0.38425564  0.09302787    -0.72270
O400        O  0.94788961  0.38762872  0.09517317    -0.72130
O401        O  0.01446167  0.38127030  0.15754101    -0.72130
O402        O  0.01281514  0.32902526  0.15443971    -0.72090
O403        O  0.94513514  0.33525607  0.09321909    -0.72110
O404        O  0.00956168  0.33192415  0.09028147    -0.72060
O405        O  0.94894707  0.33173657  0.15741680    -0.72240
V406        V  0.98129033  0.38333561  0.12629614     1.35240
V407        V  0.97910671  0.33305721  0.12380113     1.35170
C408        C  0.93970231  0.35757006  0.17068337     0.77190
C409        C  0.02193584  0.35788370  0.08057660     0.77250
C410        C  0.93508573  0.36246640  0.08363411     0.77120
C411        C  0.02482154  0.35413926  0.16693216     0.77080
C412        C  0.83417712  0.35251737  0.26335321    -0.02760
O413        O  0.12472248  0.37722946  0.04793665    -0.72050
O414        O  0.06225849  0.38217750  0.98145841    -0.72270
O415        O  0.06022138  0.38220894  0.04583004    -0.72130
O416        O  0.12730818  0.37739669  0.98427398    -0.72130
O417        O  0.12400087  0.32512226  0.98416738    -0.72090
O418        O  0.05634553  0.32986874  0.04486627    -0.72110
O419        O  0.05912254  0.32979360  0.98066064    -0.72060
O420        O  0.12067966  0.32501921  0.04794957    -0.72240
V421        V  0.09348800  0.37875267  0.01477307     1.35240
V422        V  0.09002696  0.32848544  0.01434369     1.35170
C423        C  0.13370979  0.35024640  0.05900453     0.77190
C424        C  0.04967740  0.35679075  0.97008348     0.77250
C425        C  0.04702738  0.35675994  0.05595171     0.77120
C426        C  0.13809523  0.35042201  0.97478506     0.77080
C427        C  0.23223321  0.35042294  0.87044140    -0.02760
C428        C  0.12146680  0.25315829  0.66354745    -0.02760
C429        C  0.82924412  0.25651893  0.66339673    -0.02760
O430        O  0.94891956  0.85890996  0.68914122    -0.72050
O431        O  0.01057253  0.92601071  0.68617675    -0.72270
O432        O  0.94588122  0.92377294  0.68726877    -0.72130
O433        O  0.01296473  0.86154601  0.68792887    -0.72130
O434        O  0.01284854  0.86057430  0.63592454    -0.72090
O435        O  0.94438573  0.92135841  0.63525893    -0.72110
O436        O  0.00921428  0.92512848  0.63412068    -0.72060
O437        O  0.94858329  0.85614123  0.63722852    -0.72240
V438        V  0.97951979  0.89258992  0.68657888     1.35240
V439        V  0.97866327  0.89089576  0.63660433     1.35170
C440        C  0.93860477  0.84558276  0.66385777     0.77190
C441        C  0.02087093  0.93659682  0.65978565     0.77250
C442        C  0.93361491  0.93308234  0.66112729     0.77120
C443        C  0.02452521  0.85064214  0.66208190     0.77080
O444        O  0.83252358  0.97006164  0.63275830    -0.72050
O445        O  0.89851941  0.03308175  0.63427414    -0.72270
O446        O  0.89728797  0.96818256  0.63437256    -0.72130
O447        O  0.83418123  0.03419771  0.63224774    -0.72130
O448        O  0.83239647  0.03455035  0.68434486    -0.72090
O449        O  0.89627877  0.96867790  0.68643494    -0.72110
O450        O  0.89709425  0.03364429  0.68633820    -0.72060
O451        O  0.83117533  0.97032813  0.68474066    -0.72240
V452        V  0.86565990  0.00130676  0.63445341     1.35240
V453        V  0.86434086  0.00171436  0.68447823     1.35170
C454        C  0.81996663  0.96009523  0.65842828     0.77190
C455        C  0.90876526  0.04437573  0.66057033     0.77250
C456        C  0.90788323  0.95747337  0.66068106     0.77120
C457        C  0.82238132  0.04527795  0.65782094     0.77080
C458        C  0.22877508  0.85622582  0.65957995    -0.02760
O459        O  0.12200695  0.03736152  0.63588829    -0.72050
O460        O  0.05706423  0.97272824  0.63367953    -0.72270
O461        O  0.05723677  0.03759260  0.63469502    -0.72130
O462        O  0.12202431  0.97295842  0.63430660    -0.72130
O463        O  0.12252205  0.97276853  0.68640458    -0.72090
O464        O  0.05627288  0.03635978  0.68674618    -0.72110
O465        O  0.05756147  0.97162493  0.68574160    -0.72060
O466        O  0.12079169  0.03712830  0.68788121    -0.72240
V467        V  0.08956577  0.00516039  0.63563742     1.35240
V468        V  0.08923731  0.00444719  0.68566243     1.35170
C469        C  0.13282356  0.04782844  0.66233783     0.77190
C470        C  0.04612998  0.96135537  0.65955049     0.77250
C471        C  0.04554983  0.04779676  0.66073131     0.77120
C472        C  0.13372614  0.96237349  0.66018657     0.77080
O473        O  0.94294775  0.14713445  0.63583765    -0.72050
O474        O  0.00776187  0.08227155  0.63479157    -0.72270
O475        O  0.94317785  0.08178673  0.63507070    -0.72130
O476        O  0.00642146  0.14729090  0.63490096    -0.72130
O477        O  0.00571349  0.14876122  0.68686813    -0.72090
O478        O  0.94486266  0.08026963  0.68710389    -0.72110
O479        O  0.00940093  0.08354007  0.68684360    -0.72060
O480        O  0.94202746  0.14525443  0.68772064    -0.72240
V481        V  0.97503641  0.11446049  0.63615295     1.35240
V482        V  0.97552991  0.11432952  0.68614161     1.35170
C483        C  0.93248605  0.15829413  0.66211059     0.77190
C484        C  0.01992199  0.07222381  0.66075570     0.77250
C485        C  0.93333718  0.06974040  0.66099780     0.77120
C486        C  0.01575206  0.16028520  0.66069403     0.77080
C487        C  0.22808492  0.15292614  0.66472148    -0.02760
O488        O  0.83165514  0.97196299  0.34708891    -0.72050
O489        O  0.89546421  0.03771719  0.34748527    -0.72270
O490        O  0.89626966  0.97260799  0.34613595    -0.72130
O491        O  0.83086140  0.03641320  0.34778127    -0.72130
O492        O  0.83176477  0.03612474  0.39985784    -0.72090
O493        O  0.89707506  0.97158431  0.39819739    -0.72110
O494        O  0.89631736  0.03681768  0.39954603    -0.72060
O495        O  0.83249174  0.97146040  0.39920199    -0.72240
V496        V  0.86365890  0.00467421  0.34814841     1.35240
V497        V  0.86444134  0.00402783  0.39819320     1.35170
C498        C  0.82109493  0.96083274  0.37317800     0.77190
C499        C  0.90659216  0.04858397  0.37365296     0.77250
C500        C  0.90758629  0.96095149  0.37173772     0.77120
C501        C  0.81977722  0.04667346  0.37401060     0.77080
O502        O  0.94335802  0.85779143  0.39223176    -0.72050
O503        O  0.00799342  0.92308291  0.39532837    -0.72270
O504        O  0.94333871  0.92306707  0.39584381    -0.72130
O505        O  0.00778944  0.85809246  0.39199691    -0.72130
O506        O  0.00786682  0.86077509  0.34004250    -0.72090
O507        O  0.94302416  0.92566705  0.34384418    -0.72110
O508        O  0.00752214  0.92550113  0.34331965    -0.72060
O509        O  0.94313057  0.86083764  0.34031389    -0.72240
V510        V  0.97561657  0.89056901  0.39285439     1.35240
V511        V  0.97534991  0.89310993  0.34291419     1.35170
C512        C  0.93215335  0.84827367  0.36558409     0.77190
C513        C  0.01872244  0.93534224  0.36975331     0.77250
C514        C  0.93231658  0.93555204  0.37047935     0.77120
C515        C  0.01897173  0.84846430  0.36548876     0.77080
O516        O  0.00933347  0.14729062  0.39961583    -0.72050
O517        O  0.94220373  0.08520008  0.40005947    -0.72270
O518        O  0.00645588  0.08271505  0.39793851    -0.72130
O519        O  0.94551304  0.15056905  0.40250275    -0.72130
O520        O  0.94177370  0.15065829  0.35050697    -0.72090
O521        O  0.00623769  0.08536747  0.34592112    -0.72110
O522        O  0.94173447  0.08537773  0.34798005    -0.72060
O523        O  0.00557141  0.15046019  0.34775158    -0.72240
V524        V  0.97578456  0.11644415  0.39901788     1.35240
V525        V  0.97383432  0.11790102  0.34902785     1.35170
C526        C  0.01821817  0.15995845  0.37358892     0.77190
C527        C  0.93110906  0.07412458  0.37395358     0.77250
C528        C  0.01715471  0.07287008  0.37138007     0.77120
C529        C  0.93344570  0.16226926  0.37732000     0.77080
C530        C  0.82706768  0.25536037  0.36682359    -0.02760
O531        O  0.11688996  0.03818618  0.39788935    -0.72050
O532        O  0.05423586  0.97150901  0.39668728    -0.72270
O533        O  0.11873929  0.97376257  0.39750023    -0.72130
O534        O  0.05250714  0.03635797  0.39685531    -0.72130
O535        O  0.05357793  0.03723368  0.34479315    -0.72090
O536        O  0.11924798  0.97299725  0.34559749    -0.72110
O537        O  0.05436667  0.97214433  0.34462265    -0.72060
O538        O  0.11833306  0.03748520  0.34593954    -0.72240
V539        V  0.08556329  0.00493090  0.39619366     1.35240
V540        V  0.08627662  0.00495088  0.34621160     1.35170
C541        C  0.12878720  0.04877593  0.37217582     0.77190
C542        C  0.04348508  0.96062372  0.37043869     0.77250
C543        C  0.13063481  0.96285703  0.37185474     0.77120
C544        C  0.04199275  0.04773825  0.37080538     0.77080
C545        C  0.22719024  0.85783822  0.37077206    -0.02760
C546        C  0.12405483  0.25342427  0.36983366    -0.02760
C547        C  0.22670390  0.15160047  0.36828667    -0.02760
O548        O  0.33973522  0.83617871  0.54673309    -0.72050
O549        O  0.40049320  0.83640742  0.47921586    -0.72270
O550        O  0.40401412  0.83535575  0.54344069    -0.72130
O551        O  0.33586645  0.83733644  0.48290652    -0.72130
O552        O  0.33693424  0.88965006  0.48314722    -0.72090
O553        O  0.40381666  0.88783663  0.54530384    -0.72110
O554        O  0.40180753  0.88885367  0.48071650    -0.72060
O555        O  0.33898293  0.88860159  0.54721390    -0.72240
V556        V  0.37006297  0.83737575  0.51304184     1.35240
V557        V  0.37046257  0.88775747  0.51404031     1.35170
C558        C  0.32864556  0.86216655  0.55826743     0.77190
C559        C  0.41185196  0.86258000  0.46870611     0.77250
C560        C  0.41521217  0.86124810  0.55499121     0.77120
C561        C  0.32435039  0.86380230  0.47299397     0.77080
O562        O  0.09773785  0.36281584  0.48429984    -0.72050
O563        O  0.09946823  0.42726530  0.54917607    -0.72270
O564        O  0.09889786  0.42712890  0.48477948    -0.72130
O565        O  0.09778611  0.36257211  0.54842153    -0.72130
O566        O  0.14975492  0.36091768  0.54858490    -0.72090
O567        O  0.15111826  0.42591897  0.48468512    -0.72110
O568        O  0.15167439  0.42555728  0.54887893    -0.72060
O569        O  0.14980655  0.36182694  0.48458535    -0.72240
V570        V  0.09945222  0.39495402  0.51674542     1.35240
V571        V  0.14956435  0.39361838  0.51675378     1.35170
C572        C  0.12370939  0.35176085  0.47303862     0.77190
C573        C  0.12606384  0.43723898  0.55999034     0.77250
C574        C  0.12512416  0.43695766  0.47343404     0.77120
C575        C  0.12337182  0.35032968  0.55920046     0.77080
O576        O  0.33455625  0.17138256  0.48499943    -0.72050
O577        O  0.39817622  0.16874126  0.55089059    -0.72270
O578        O  0.39904650  0.16969491  0.48637398    -0.72130
O579        O  0.33336093  0.17087229  0.54919287    -0.72130
O580        O  0.33335189  0.11846621  0.54975733    -0.72090
O581        O  0.39674173  0.11728263  0.48439487    -0.72110
O582        O  0.39808649  0.11629647  0.54900736    -0.72060
O583        O  0.33212884  0.11911719  0.48552122    -0.72240
V584        V  0.36631651  0.16915289  0.51790286     1.35240
V585        V  0.36511114  0.11879646  0.51720097     1.35170
C586        C  0.32206196  0.14562822  0.47429583     0.77190
C587        C  0.40930788  0.14207981  0.56087329     0.77250
C588        C  0.40867525  0.14339472  0.47429655     0.77120
C589        C  0.32217135  0.14487238  0.56026155     0.77080
O590        O  0.85906858  0.36296213  0.54614061    -0.72050
O591        O  0.85821605  0.42765624  0.48176224    -0.72270
O592        O  0.85879430  0.42795600  0.54649952    -0.72130
O593        O  0.85784539  0.36267489  0.48159205    -0.72130
O594        O  0.80567847  0.36191284  0.48346346    -0.72090
O595        O  0.80662340  0.42868900  0.54570764    -0.72110
O596        O  0.80604892  0.42679770  0.48116747    -0.72060
O597        O  0.80707775  0.36403482  0.54778513    -0.72240
V598        V  0.85749761  0.39530851  0.51401117     1.35240
V599        V  0.80739485  0.39537161  0.51451838     1.35170
C600        C  0.83333349  0.35263512  0.55827828     0.77190
C601        C  0.83206712  0.43794648  0.47017095     0.77250
C602        C  0.83263999  0.43937273  0.55709840     0.77120
C603        C  0.83143691  0.35127005  0.47160992     0.77080
C604        C  0.12839960  0.35164963  0.26446700    -0.02760
C605        C  0.23036154  0.35047904  0.16280551    -0.02760
O606        O  0.33329571  0.52993572  0.18459607    -0.72050
O607        O  0.40144664  0.46870286  0.18395281    -0.72270
O608        O  0.39795140  0.53369251  0.18479630    -0.72130
O609        O  0.33719027  0.46569329  0.18398698    -0.72130
O610        O  0.33749031  0.46529197  0.13197721    -0.72090
O611        O  0.39767265  0.53449292  0.13273505    -0.72110
O612        O  0.40163879  0.46946409  0.13186446    -0.72060
O613        O  0.33319744  0.52975948  0.13261320    -0.72240
V614        V  0.36756818  0.49953926  0.18331304     1.35240
V615        V  0.36754367  0.49980699  0.13329874     1.35170
C616        C  0.32124580  0.53987404  0.15860111     0.77190
C617        C  0.41272369  0.45832136  0.15776223     0.77250
C618        C  0.40811193  0.54579894  0.15899490     0.77120
C619        C  0.32683230  0.45398589  0.15795736     0.77080
O620        O  0.80543785  0.53694239  0.36792783    -0.72050
O621        O  0.80595561  0.47193230  0.43215276    -0.72270
O622        O  0.80574704  0.53682800  0.43251580    -0.72130
O623        O  0.80611090  0.47199950  0.36736128    -0.72130
O624        O  0.85820575  0.47060832  0.36952698    -0.72090
O625        O  0.85786032  0.53858996  0.43108134    -0.72110
O626        O  0.85806933  0.47374777  0.43388469    -0.72060
O627        O  0.85746809  0.53565447  0.36617430    -0.72240
V628        V  0.80682606  0.50442629  0.39998501     1.35240
V629        V  0.85690467  0.50469070  0.40012517     1.35170
C630        C  0.83121738  0.54715528  0.35569289     0.77190
C631        C  0.83203087  0.46218004  0.44437417     0.77250
C632        C  0.83178446  0.54872650  0.44287451     0.77120
C633        C  0.83233009  0.45999451  0.35761652     0.77080
O634        O  0.33262023  0.53425910  0.88918677    -0.72050
O635        O  0.40060283  0.47255296  0.89588110    -0.72270
O636        O  0.39745001  0.53716582  0.89237211    -0.72130
O637        O  0.33602801  0.46978339  0.89401751    -0.72130
O638        O  0.33652189  0.46686594  0.84202649    -0.72090
O639        O  0.40009862  0.53348797  0.84049387    -0.72110
O640        O  0.40122013  0.46910407  0.84388387    -0.72060
O641        O  0.33558474  0.53103011  0.83722986    -0.72240
V642        V  0.36665037  0.50341018  0.89188398     1.35240
V643        V  0.36833924  0.50016088  0.84195463     1.35170
C644        C  0.32273470  0.54293723  0.86178206     0.77190
C645        C  0.41248902  0.46058443  0.87058128     0.77250
C646        C  0.40978165  0.54639891  0.86639074     0.77120
C647        C  0.32554736  0.45705034  0.86855723     0.77080
O648        O  0.15101074  0.46867538  0.37173466    -0.72050
O649        O  0.15158472  0.53501713  0.43512274    -0.72270
O650        O  0.15133894  0.47055175  0.43620801    -0.72130
O651        O  0.15146854  0.53330714  0.37060107    -0.72130
O652        O  0.09932213  0.53428368  0.37073338    -0.72090
O653        O  0.09911506  0.47082459  0.43602000    -0.72110
O654        O  0.09940478  0.53530897  0.43533994    -0.72060
O655        O  0.09893409  0.46910910  0.37156822    -0.72240
V656        V  0.15031211  0.50191208  0.40336603     1.35240
V657        V  0.10018574  0.50237363  0.40332663     1.35170
C658        C  0.12490018  0.45739377  0.36088369     0.77190
C659        C  0.12561335  0.54595398  0.44651461     0.77250
C660        C  0.12521763  0.46039968  0.44754221     0.77120
C661        C  0.12552907  0.54468646  0.35962581     0.77080
C662        C  0.32776336  0.14739201  0.26664893    -0.02760
C663        C  0.33397694  0.24890547  0.16554172    -0.02760
O664        O  0.51120439  0.35985535  0.84200867    -0.72050
O665        O  0.45033598  0.42753132  0.84479070    -0.72270
O666        O  0.51469213  0.42494122  0.84476813    -0.72130
O667        O  0.44769503  0.36338153  0.84171304    -0.72130
O668        O  0.44814073  0.36002752  0.89356670    -0.72090
O669        O  0.51389625  0.42394290  0.89681476    -0.72110
O670        O  0.44903761  0.42493902  0.89680291    -0.72060
O671        O  0.51194520  0.35835592  0.89394692    -0.72240
V672        V  0.48108951  0.39403348  0.84439491     1.35240
V673        V  0.48089115  0.39199385  0.89435128     1.35170
C674        C  0.52079627  0.34643623  0.86745839     0.77190
C675        C  0.43849942  0.43693243  0.87103971     0.77250
C676        C  0.52539485  0.43538982  0.87118229     0.77120
C677        C  0.43699122  0.35060473  0.86687392     0.77080
O678        O  0.44224087  0.11905813  0.37214650    -0.72050
O679        O  0.50731859  0.11632138  0.43581080    -0.72270
O680        O  0.44276861  0.11726086  0.43657605    -0.72130
O681        O  0.50660717  0.11781425  0.37173996    -0.72130
O682        O  0.50605860  0.17023554  0.37194399    -0.72090
O683        O  0.44448675  0.16969864  0.43883283    -0.72110
O684        O  0.50866717  0.16885620  0.43588431    -0.72060
O685        O  0.44210790  0.17138999  0.37474149    -0.72240
V686        V  0.47468197  0.11858352  0.40409908     1.35240
V687        V  0.47530201  0.16899742  0.40536685     1.35170
C688        C  0.43108923  0.14581465  0.36259439     0.77190
C689        C  0.51931634  0.14232549  0.44620505     0.77250
C690        C  0.43299313  0.14340078  0.44892939     0.77120
C691        C  0.51719767  0.14410480  0.36073645     0.77080
O692        O  0.51435437  0.35897384  0.13012143    -0.72050
O693        O  0.44870592  0.42286910  0.13112456    -0.72270
O694        O  0.51319318  0.42403922  0.13042398    -0.72130
O695        O  0.44958869  0.35766381  0.13101153    -0.72130
O696        O  0.45124799  0.35747024  0.18296603    -0.72090
O697        O  0.51324074  0.42446554  0.18250334    -0.72110
O698        O  0.44899572  0.42238995  0.18321535    -0.72060
O699        O  0.51555477  0.35994647  0.18212944    -0.72240
V700        V  0.48144970  0.39087167  0.13163286     1.35240
V701        V  0.48220621  0.39101877  0.18164196     1.35170
C702        C  0.52661443  0.34909203  0.15605420     0.77190
C703        C  0.43786069  0.43358947  0.15735226     0.77250
C704        C  0.52384623  0.43561466  0.15648863     0.77120
C705        C  0.43984835  0.34592607  0.15723301     0.77080
O706        O  0.51326002  0.88612027  0.36890241    -0.72050
O707        O  0.44772477  0.88805081  0.43211459    -0.72270
O708        O  0.51271794  0.88745223  0.43366300    -0.72130
O709        O  0.44923016  0.88620185  0.36687701    -0.72130
O710        O  0.44920170  0.83389071  0.36857668    -0.72090
O711        O  0.51241468  0.83499595  0.43437799    -0.72110
O712        O  0.44771114  0.83558803  0.43322126    -0.72060
O713        O  0.51314548  0.83370500  0.36997317    -0.72240
V714        V  0.48068634  0.88598441  0.40053744     1.35240
V715        V  0.48057356  0.83561818  0.40160882     1.35170
C716        C  0.52356032  0.85959170  0.35788628     0.77190
C717        C  0.43663299  0.86212658  0.44354964     0.77250
C718        C  0.52369773  0.86125059  0.44502196     0.77120
C719        C  0.43909824  0.85959246  0.35564379     0.77080
C720        C  0.82848468  0.74937411  0.35889598    -0.02760
C721        C  0.38705409  0.27179344  0.14003198    -0.26590
C722        C  0.36354932  0.27349129  0.16480092    -0.14660
C723        C  0.36953778  0.29786987  0.18865058     0.35970
C724        C  0.39362241  0.32110383  0.18441311    -0.26040
C725        C  0.41484243  0.32021660  0.15863536    -0.15280
C726        C  0.41234385  0.29412045  0.13681733     0.37050
N727        N  0.43545246  0.28833064  0.11183476    -0.89530
H728        H  0.38752629  0.25210805  0.12312902     0.18170
H729        H  0.39634891  0.33973785  0.20254813     0.18160
N730        N  0.35406639  0.29792004  0.21911518    -0.88560
H731        H  0.44516140  0.26531035  0.11549975     0.35540
H732        H  0.45495167  0.30393104  0.11338913     0.40630
H733        H  0.37148945  0.29517322  0.23699820     0.40250
H734        H  0.34348185  0.32061707  0.22251090     0.35140
C735        C  0.35658573  0.19703970  0.24078243    -0.26590
C736        C  0.32843233  0.17825905  0.24467178    -0.14660
C737        C  0.30227073  0.18550526  0.22406434     0.35970
C738        C  0.30436296  0.21034159  0.20165148    -0.26040
C739        C  0.33268363  0.22826878  0.19679616    -0.15280
C740        C  0.35926815  0.22115789  0.21719755     0.37050
N741        N  0.39048725  0.23421201  0.21123416    -0.89530
H742        H  0.37831349  0.19117089  0.25370559     0.18170
H743        H  0.28394367  0.21380785  0.18596119     0.18160
N744        N  0.27349477  0.16676413  0.22473144    -0.88560
H745        H  0.40589825  0.21519991  0.20514448     0.35540
H746        H  0.39905353  0.24452075  0.23249652     0.40630
H747        H  0.27014040  0.15639230  0.20208198     0.40250
H748        H  0.25416077  0.18228440  0.22919549     0.35140
C749        C  0.36173070  0.17278798  0.31010888    -0.26590
C750        C  0.35784201  0.14617704  0.28908289    -0.14660
C751        C  0.37900734  0.11923193  0.29340841     0.35970
C752        C  0.40295712  0.12046630  0.31695940    -0.26040
C753        C  0.40620944  0.14703766  0.33744978    -0.15280
C754        C  0.38525305  0.17360567  0.33379017     0.37050
N755        N  0.38624673  0.20137140  0.35436745    -0.89530
H756        H  0.34562370  0.19331170  0.30839543     0.18170
H757        H  0.41871073  0.09976858  0.31973425     0.18160
N758        N  0.37547910  0.08947491  0.27615503    -0.88560
H759        H  0.40819756  0.21313113  0.35139379     0.35540
H760        H  0.38385659  0.19384217  0.37812890     0.40630
H761        H  0.39696462  0.08477917  0.26408066     0.40250
H762        H  0.37192530  0.07080415  0.29257013     0.35140
C763        C  0.25589702  0.29741291  0.13946963    -0.26590
C764        C  0.25311838  0.31996566  0.16498138    -0.14660
C765        C  0.27294993  0.31371646  0.19229233     0.35970
C766        C  0.29324449  0.28700466  0.19267016    -0.26040
C767        C  0.30147893  0.26953115  0.16499837    -0.15280
C768        C  0.27744907  0.27091985  0.14050965     0.37050
N769        N  0.27137084  0.24394404  0.11963055    -0.89530
H770        H  0.24132576  0.29972253  0.11822857     0.18170
H771        H  0.30265832  0.27993881  0.21561634     0.18160
N772        N  0.27530751  0.33453153  0.21971224    -0.88560
H773        H  0.25242137  0.24872981  0.10383313     0.35540
H774        H  0.26413921  0.22453860  0.13379988     0.40630
H775        H  0.25322364  0.33902317  0.23033307     0.40250
H776        H  0.28688949  0.35580362  0.21334220     0.35140
C777        C  0.28081566  0.42766127  0.18419768    -0.26590
C778        C  0.30228847  0.42827916  0.15850241    -0.14660
C779        C  0.30084416  0.40372074  0.13518194     0.35970
C780        C  0.27771213  0.37931701  0.13810091    -0.26040
C781        C  0.25460013  0.37914649  0.16302823    -0.15280
C782        C  0.25756090  0.40348037  0.18719979     0.37050
N783        N  0.23955031  0.40274935  0.21634187    -0.89530
H784        H  0.28244576  0.44596368  0.20277957     0.18170
H785        H  0.27686720  0.36059437  0.11991823     0.18160
N786        N  0.32336361  0.40294626  0.10914573    -0.88560
H787        H  0.22792003  0.42499235  0.21901334     0.35540
H788        H  0.25560598  0.40056228  0.23553000     0.40630
H789        H  0.31764039  0.42205521  0.09383689     0.40250
H790        H  0.32054747  0.38186173  0.09556461     0.35140
C791        C  0.15902130  0.37591947  0.21769263    -0.26590
C792        C  0.15659768  0.35023262  0.23974466    -0.14660
C793        C  0.17576503  0.32239681  0.23302876     0.35970
C794        C  0.19926058  0.32340659  0.20911680    -0.26040
C795        C  0.20489539  0.35108580  0.19033626    -0.15280
C796        C  0.18217015  0.37657572  0.19342034     0.37050
N797        N  0.18207640  0.40326607  0.17168413    -0.89530
H798        H  0.14269414  0.39623201  0.21955895     0.18170
H799        H  0.21225214  0.30124201  0.20467689     0.18160
N800        N  0.17012779  0.29180864  0.24790786    -0.88560
H801        H  0.15992569  0.40349284  0.15980772     0.35540
H802        H  0.18372071  0.42471522  0.18484999     0.40630
H803        H  0.19152353  0.28403937  0.25860817     0.40250
H804        H  0.16392887  0.27507216  0.23012098     0.35140
C805        C  0.10371285  0.38297077  0.31076351    -0.26590
C806        C  0.12924270  0.38126180  0.28833072    -0.14660
C807        C  0.15381577  0.40542200  0.29121738     0.35970
C808        C  0.15101276  0.42991604  0.31466181    -0.26040
C809        C  0.12521226  0.43138411  0.33605717    -0.15280
C810        C  0.10130420  0.40738395  0.33393416     0.37050
N811        N  0.07465146  0.40644112  0.35551346    -0.89530
H812        H  0.08483196  0.36500642  0.30989751     0.18170
H813        H  0.16960802  0.44811021  0.31646979     0.18160
N814        N  0.18189995  0.40559826  0.27130814    -0.88560
H815        H  0.06084742  0.42730020  0.35237542     0.35540
H816        H  0.08344208  0.40581923  0.37900430     0.40630
H817        H  0.19680597  0.38653418  0.27805784     0.40250
H818        H  0.19538136  0.42661655  0.27470028     0.35140
C819        C  0.27257500  0.12567672  0.33810785    -0.26590
C820        C  0.25112383  0.15196760  0.34008511    -0.14660
C821        C  0.25701613  0.17848345  0.31915851     0.35970
C822        C  0.28068902  0.17610117  0.29554545    -0.26040
C823        C  0.29953840  0.14809216  0.29117622    -0.15280
C824        C  0.29572234  0.12309749  0.31412056     0.37050
N825        N  0.31534853  0.09467843  0.31332771    -0.89530
H826        H  0.27053923  0.10595825  0.35498815     0.18170
H827        H  0.28505782  0.19766186  0.28181562     0.18160
N828        N  0.24079767  0.20888958  0.32238228    -0.88560
H829        H  0.30039775  0.07450011  0.31142187     0.35540
H830        H  0.32762077  0.09308756  0.33517476     0.40630
H831        H  0.22931054  0.21404869  0.30066170     0.40250
H832        H  0.25791052  0.22691433  0.32638725     0.35140
C833        C  0.29402388  0.17453754  0.42999716    -0.26590
C834        C  0.29668966  0.14678231  0.44894455    -0.14660
C835        C  0.27534569  0.12092482  0.44279813     0.35970
C836        C  0.25252481  0.12332048  0.41815633    -0.26040
C837        C  0.24943564  0.15121597  0.39869542    -0.15280
C838        C  0.27145562  0.17682797  0.40500142     0.37050
N839        N  0.27149971  0.20533324  0.38572069    -0.89530
H840        H  0.31029532  0.19456836  0.43393944     0.18170
H841        H  0.23835417  0.10197642  0.41366190     0.18160
N842        N  0.27603997  0.09166683  0.46103107    -0.88560
H843        H  0.29423750  0.20761336  0.37541794     0.35540
H844        H  0.26777471  0.22530159  0.40067590     0.40630
H845        H  0.27326988  0.09740108  0.48528454     0.40250
H846        H  0.29809581  0.08014548  0.45750426     0.35140
C847        C  0.15778034  0.21049987  0.34363469    -0.26590
C848        C  0.15451511  0.23104012  0.37031535    -0.14660
C849        C  0.17658696  0.22611633  0.39621077     0.35970
C850        C  0.19984687  0.20159866  0.39430851    -0.26040
C851        C  0.20271366  0.18077940  0.36764038    -0.15280
C852        C  0.18003636  0.18548747  0.34219824     0.37050
N853        N  0.17720291  0.16468464  0.31483166    -0.89530
H854        H  0.14091961  0.21234010  0.32396996     0.18170
H855        H  0.21409426  0.19774294  0.41558253     0.18160
N856        N  0.17399047  0.24289457  0.42617627    -0.88560
H857        H  0.16604838  0.14324179  0.32139680     0.35540
H858        H  0.19921368  0.16067640  0.30381575     0.40630
H859        H  0.19577057  0.25469248  0.43051268     0.40250
H860        H  0.17094955  0.22603808  0.44451384     0.35140
C861        C  0.15385887  0.29269087  0.33214796    -0.26590
C862        C  0.12658039  0.27325173  0.33716605    -0.14660
C863        C  0.10557073  0.27214538  0.31014561     0.35970
C864        C  0.10421922  0.29843525  0.28879570    -0.26040
C865        C  0.12872602  0.32199425  0.28783540    -0.15280
C866        C  0.15462097  0.31750891  0.30953168     0.37050
N867        N  0.18239827  0.33771447  0.30840440    -0.89530
H868        H  0.17595296  0.28783397  0.34457906     0.18170
H869        H  0.08445794  0.29864060  0.27214554     0.18160
N870        N  0.09103286  0.24246923  0.29990643    -0.88560
H871        H  0.20256140  0.32317972  0.30439883     0.35540
H872        H  0.18510079  0.34881879  0.33079615     0.40630
H873        H  0.10234640  0.23511368  0.27876326     0.40250
H874        H  0.06699847  0.24701216  0.29405212     0.35140
C875        C  0.14942059  0.29907737  0.40358905    -0.26590
C876        C  0.12240420  0.27906264  0.39797980    -0.14660
C877        C  0.09507023  0.28520238  0.41820720     0.35970
C878        C  0.09629048  0.30920572  0.44188099    -0.26040
C879        C  0.12370574  0.32765520  0.44705635    -0.15280
C880        C  0.15061911  0.32266794  0.42750382     0.37050
N881        N  0.17948118  0.34123984  0.43198406    -0.89530
H882        H  0.17177694  0.29426058  0.39205204     0.18170
H883        H  0.07537589  0.31300114  0.45685234     0.18160
N884        N  0.06559519  0.26774275  0.41587105    -0.88560
H885        H  0.19547500  0.33750008  0.41306075     0.35540
H886        H  0.19099365  0.33237793  0.45245843     0.40630
H887        H  0.04700733  0.28411333  0.41118505     0.40250
H888        H  0.06109151  0.25665086  0.43787809     0.35140
C889        C  0.26212480  0.88929969  0.41062010    -0.26590
C890        C  0.24688604  0.85949981  0.40303718    -0.14660
C891        C  0.25619278  0.83206773  0.42150208     0.35970
C892        C  0.28010867  0.83495852  0.44508590    -0.26040
C893        C  0.29668191  0.86395834  0.45033937    -0.15280
C894        C  0.28697660  0.89162907  0.43306529     0.37050
N895        N  0.30302342  0.92207249  0.43604899    -0.89530
H896        H  0.25705809  0.91061085  0.39648350     0.18170
H897        H  0.28674116  0.81355101  0.45846466     0.18160
N898        N  0.24305429  0.80065416  0.41584656    -0.88560
H899        H  0.32730068  0.91888825  0.43055093     0.35540
H900        H  0.30068674  0.93042749  0.45958242     0.40630
H901        H  0.23271441  0.79263123  0.43716895     0.40250
H902        H  0.26180763  0.78491048  0.40994606     0.35140
C903        C  0.18200963  0.11994391  0.39480785    -0.26590
C904        C  0.20355992  0.12165804  0.36859414    -0.14660
C905        C  0.19989087  0.09780255  0.34395378     0.35970
C906        C  0.17598439  0.07412126  0.34652320    -0.26040
C907        C  0.15474282  0.07325565  0.37241287    -0.15280
C908        C  0.15811349  0.09622047  0.39714666     0.37050
N909        N  0.13655173  0.09634515  0.42399151    -0.89530
H910        H  0.18381147  0.13774673  0.41380732     0.18170
H911        H  0.17348038  0.05661247  0.32730023     0.18160
N912        N  0.21778060  0.09856772  0.31476224    -0.88560
H913        H  0.14061257  0.11649727  0.43861364     0.35540
H914        H  0.14208235  0.07619595  0.43800633     0.40630
H915        H  0.20174018  0.10064142  0.29554383     0.40250
H916        H  0.22983479  0.07650644  0.31234121     0.35140
C917        C  0.17788682  0.93599910  0.34619252    -0.26590
C918        C  0.15729949  0.93900713  0.37260302    -0.14660
C919        C  0.16436360  0.92066815  0.40009918     0.35970
C920        C  0.18844818  0.89747399  0.39889028    -0.26040
C921        C  0.20540252  0.88944768  0.37049484    -0.15280
C922        C  0.20320455  0.91324453  0.34584347     0.37050
N923        N  0.22846465  0.91804351  0.32324322    -0.89530
H924        H  0.17551612  0.95268600  0.32636449     0.18170
H925        H  0.19484319  0.88684905  0.42158092     0.18160
N926        N  0.14778921  0.92472397  0.42989678    -0.88560
H927        H  0.23919591  0.94030284  0.32829765     0.35540
H928        H  0.21833121  0.91986075  0.30037901     0.40630
H929        H  0.12326360  0.92080242  0.42620800     0.40250
H930        H  0.15168649  0.94812912  0.43850222     0.35140
C931        C  0.82624167  0.29474658  0.45252701    -0.26590
C932        C  0.83029839  0.32745336  0.44538511    -0.14660
C933        C  0.83180681  0.33714935  0.41316628     0.35970
C934        C  0.82963709  0.31391774  0.38893338    -0.26040
C935        C  0.82623300  0.28032884  0.39521307    -0.15280
C936        C  0.82495733  0.27111219  0.42832691     0.37050
N937        N  0.82340137  0.23818646  0.43878423    -0.89530
H938        H  0.82494296  0.28732062  0.47737983     0.18170
H939        H  0.83164443  0.32322867  0.36494872     0.18160
N940        N  0.83584189  0.37035202  0.40384029    -0.88560
H941        H  0.84503913  0.22650897  0.43392724     0.35540
H942        H  0.80441492  0.22612981  0.42775816     0.40630
H943        H  0.83786999  0.38585010  0.42346830     0.40250
H944        H  0.81520085  0.37738082  0.39132078     0.35140
C945        C  0.07042821  0.17966047  0.39232296    -0.26590
C946        C  0.04333513  0.18470093  0.37345646    -0.14660
C947        C  0.03982226  0.21417941  0.35709342     0.35970
C948        C  0.06468180  0.23681834  0.35819440    -0.26040
C949        C  0.09470740  0.22976385  0.37247765    -0.15280
C950        C  0.09521260  0.20237841  0.39344069     0.37050
N951        N  0.11914845  0.19897515  0.41794636    -0.89530
H952        H  0.07187233  0.15818288  0.40706903     0.18170
H953        H  0.06001263  0.26055550  0.34851111     0.18160
N954        N  0.01089053  0.22234557  0.34028352    -0.88560
H955        H  0.11693446  0.17700995  0.43002965     0.35540
H956        H  0.11470544  0.21707082  0.43489138     0.40630
H957        H  0.99163698  0.22059435  0.35618312     0.40250
H958        H  0.00749867  0.20571790  0.32169843     0.35140
C959        C  0.91340341  0.21925862  0.38224306    -0.26590
C960        C  0.90731849  0.18599343  0.37924359    -0.14660
C961        C  0.87552665  0.17527823  0.37802776     0.35970
C962        C  0.85100186  0.19784232  0.37619905    -0.26040
C963        C  0.85610576  0.23159650  0.37372496    -0.15280
C964        C  0.88803601  0.24207438  0.38057501     0.37050
N965        N  0.89490134  0.27560972  0.38569250    -0.89530
H966        H  0.93784631  0.22759470  0.38542839     0.18170
H967        H  0.82761820  0.18774139  0.37728210     0.18160
N968        N  0.86681690  0.14162664  0.37907321    -0.88560
H969        H  0.91320273  0.28263230  0.37017890     0.35540
H970        H  0.90370513  0.27818651  0.40904718     0.40630
H971        H  0.88650663  0.12638570  0.38219757     0.40250
H972        H  0.85628404  0.13561513  0.35707333     0.35140
C973        C  0.90788011  0.79640988  0.38419623    -0.26590
C974        C  0.90688269  0.82301785  0.36365230    -0.14660
C975        C  0.88360944  0.82359505  0.33928612     0.35970
C976        C  0.86111804  0.79850861  0.33702995    -0.26040
C977        C  0.85863548  0.77335297  0.35991920    -0.15280
C978        C  0.88571494  0.77069240  0.38127292     0.37050
N979        N  0.89295811  0.74101267  0.39756609    -0.89530
H980        H  0.92746978  0.79462727  0.40126301     0.18170
H981        H  0.84669671  0.79862429  0.31592726     0.18160
N982        N  0.88266132  0.84985396  0.31677313    -0.88560
H983        H  0.91336882  0.74327527  0.41204940     0.35540
H984        H  0.89845085  0.72376990  0.38004653     0.40630
H985        H  0.87706181  0.87087269  0.32958198     0.40250
H986        H  0.86417749  0.84667350  0.30004909     0.35140
C987        C  0.27246883  0.12557898  0.63349486    -0.26590
C988        C  0.24934505  0.15077288  0.63393704    -0.14660
C989        C  0.24919050  0.17262370  0.60757268     0.35970
C990        C  0.27337263  0.17013265  0.58404177    -0.26040
C991        C  0.29667384  0.14557281  0.58488893    -0.15280
C992        C  0.29553647  0.12262669  0.60964111     0.37050
N993        N  0.31837956  0.09681708  0.61223375    -0.89530
H994        H  0.27281965  0.10792645  0.65261804     0.18170
H995        H  0.27374499  0.18727773  0.56448130     0.18160
N996        N  0.22500164  0.19714211  0.60424329    -0.88560
H997        H  0.34151157  0.10658245  0.61262408     0.35540
H998        H  0.31592327  0.08157291  0.59238335     0.40630
H999        H  0.20374170  0.18543752  0.59773290     0.40250
H1000       H  0.23034451  0.21264030  0.58527601     0.35140
C1001       C  0.16158164  0.09202084  0.69060282    -0.26590
C1002       C  0.15894174  0.07191788  0.66369131    -0.14660
C1003       C  0.18089910  0.07537642  0.63844924     0.35970
C1004       C  0.20405533  0.09984343  0.63995282    -0.26040
C1005       C  0.20687126  0.12123294  0.66661011    -0.15280
C1006       C  0.18445629  0.11674496  0.69213722     0.37050
N1007       N  0.18381491  0.13838310  0.71911390    -0.89530
H1008       H  0.14470748  0.08958634  0.71015581     0.18170
H1009       H  0.21827280  0.10287579  0.61868786     0.18160
N1010       N  0.17936694  0.05433389  0.61095398    -0.88560
H1011       H  0.16105923  0.14885054  0.72055647     0.35540
H1012       H  0.18698783  0.12475626  0.73994504     0.40630
H1013       H  0.18500568  0.03099742  0.61870979     0.40250
H1014       H  0.19674463  0.06047361  0.59402674     0.35140
C1015       C  0.17138674  0.88039621  0.65200689    -0.26590
C1016       C  0.20450247  0.88559444  0.65909782    -0.14660
C1017       C  0.21409095  0.91848544  0.66342478     0.35970
C1018       C  0.19076896  0.94335436  0.66448339    -0.26040
C1019       C  0.15812075  0.93663040  0.65953593    -0.15280
C1020       C  0.14871001  0.90503194  0.65239774     0.37050
N1021       N  0.11588995  0.89714079  0.64549534    -0.89530
H1022       H  0.16197086  0.85707343  0.64543200     0.18170
H1023       H  0.19828340  0.96806404  0.66864597     0.18160
N1024       N  0.24741352  0.92681951  0.66641249    -0.88560
H1025       H  0.10843942  0.91033351  0.62548562     0.35540
H1026       H  0.10175873  0.90390143  0.66507307     0.40630
H1027       H  0.25064349  0.93954216  0.68785656     0.40250
H1028       H  0.25319178  0.94273282  0.64794573     0.35140
C1029       C  0.27662769  0.83341484  0.62662871    -0.26590
C1030       C  0.25296656  0.85787435  0.63015994    -0.14660
C1031       C  0.25299952  0.88192859  0.60543255     0.35970
C1032       C  0.27888212  0.88403600  0.58376720    -0.26040
C1033       C  0.30372161  0.86121714  0.58358354    -0.15280
C1034       C  0.30224950  0.83534227  0.60511508     0.37050
N1035       N  0.32655928  0.81055871  0.60482450    -0.89530
H1036       H  0.27408192  0.81071897  0.63833961     0.18170
H1037       H  0.27840301  0.90259879  0.56551388     0.18160
N1038       N  0.22549032  0.90172440  0.59902707    -0.88560
H1039       H  0.32183936  0.79290222  0.62202446     0.35540
H1040       H  0.34825120  0.82134442  0.61156486     0.40630
H1041       H  0.21668942  0.89569943  0.57629094     0.40250
H1042       H  0.23283265  0.92583434  0.59815622     0.35140
C1043       C  0.88091422  0.23042800  0.68761919    -0.26590
C1044       C  0.85890195  0.23286782  0.66175537    -0.14660
C1045       C  0.86400285  0.21104274  0.63529348     0.35970
C1046       C  0.88915466  0.18882572  0.63596422    -0.26040
C1047       C  0.90936595  0.18561425  0.66245063    -0.15280
C1048       C  0.90605030  0.20783898  0.68819614     0.37050
N1049       N  0.92734106  0.20867633  0.71545443    -0.89530
H1050       H  0.87805557  0.24471580  0.70905170     0.18170
H1051       H  0.89156549  0.17227054  0.61590570     0.18160
N1052       N  0.84328728  0.20851043  0.60790623    -0.88560
H1053       H  0.93636682  0.23216939  0.71733292     0.35540
H1054       H  0.94758030  0.19442262  0.71202643     0.40630
H1055       H  0.83795234  0.23077307  0.59772700     0.40250
H1056       H  0.82280672  0.19549459  0.61379937     0.35140
C1057       C  0.85845676  0.28585463  0.61653035    -0.26590
C1058       C  0.83013121  0.28127426  0.63477247    -0.14660
C1059       C  0.80443630  0.30324973  0.62871430     0.35970
C1060       C  0.80612178  0.32547067  0.60352554    -0.26040
C1061       C  0.83355151  0.32832494  0.58451823    -0.15280
C1062       C  0.86029032  0.30842237  0.59165711     0.37050
N1063       N  0.88971884  0.31015862  0.57408238    -0.89530
H1064       H  0.87999440  0.27215443  0.62151884     0.18170
H1065       H  0.78573105  0.34124379  0.59936502     0.18160
N1066       N  0.77626010  0.30345627  0.64810996    -0.88560
H1067       H  0.89964127  0.33312249  0.57717396     0.35540
H1068       H  0.88480229  0.30615755  0.54981008     0.40630
H1069       H  0.75631996  0.29953791  0.63331448     0.40250
H1070       H  0.77392828  0.32639322  0.65843616     0.35140
C1071       C  0.17148696  0.17565582  0.65304850    -0.26590
C1072       C  0.20301947  0.18210550  0.66437599    -0.14660
C1073       C  0.20729579  0.21433022  0.67636115     0.35970
C1074       C  0.18175252  0.23693533  0.67494080    -0.26040
C1075       C  0.15005024  0.22788376  0.66682617    -0.15280
C1076       C  0.14576395  0.19410787  0.66328603     0.37050
N1077       N  0.12262195  0.17671051  0.68189772    -0.89530
H1078       H  0.16505344  0.15291146  0.64211241     0.18170
H1079       H  0.18680769  0.26184136  0.68117463     0.18160
N1080       N  0.23676712  0.22542113  0.68956932    -0.88560
H1081       H  0.10465232  0.16690540  0.66745936     0.35540
H1082       H  0.11380084  0.19044366  0.70097056     0.40630
H1083       H  0.23261028  0.23295240  0.71314160     0.40250
H1084       H  0.24410333  0.24556203  0.67642511     0.35140
C1085       C  0.05681071  0.19240722  0.63237137    -0.26590
C1086       C  0.03831767  0.18783219  0.65985985    -0.14660
C1087       C  0.04280156  0.20851364  0.68627842     0.35970
C1088       C  0.06815844  0.23071783  0.68609296    -0.26040
C1089       C  0.08992389  0.23284177  0.66011425    -0.15280
C1090       C  0.08313568  0.21333152  0.63221025     0.37050
N1091       N  0.10350725  0.21150866  0.60431973    -0.89530
H1092       H  0.05286605  0.17716432  0.61155897     0.18170
H1093       H  0.07186670  0.24451918  0.70774394     0.18160
N1094       N  0.02178143  0.20674875  0.71345061    -0.88560
H1095       H  0.10998967  0.18729820  0.60099416     0.35540
H1096       H  0.12529379  0.22322483  0.60729438     0.40630
H1097       H  0.99917110  0.21442744  0.70568046     0.40250
H1098       H  0.02884594  0.22298848  0.73136289     0.35140
C1099       C  0.09500370  0.28708250  0.61859072    -0.26590
C1100       C  0.12398073  0.27591303  0.63294521    -0.14660
C1101       C  0.15267911  0.28608677  0.61708695     0.35970
C1102       C  0.15158155  0.31058209  0.59385075    -0.26040
C1103       C  0.12262445  0.32418504  0.58346877    -0.15280
C1104       C  0.09384223  0.31121228  0.59548323     0.37050
N1105       N  0.06272268  0.32186555  0.58515172    -0.89530
H1106       H  0.07193944  0.27774816  0.62573891     0.18170
H1107       H  0.17394851  0.31831874  0.58314666     0.18160
N1108       N  0.18280588  0.27030769  0.62133460    -0.88560
H1109       H  0.06047243  0.31799541  0.56048448     0.35540
H1110       H  0.06012156  0.34641190  0.59051152     0.40630
H1111       H  0.19985698  0.28757532  0.62809624     0.40250
H1112       H  0.18980633  0.26039330  0.59935323     0.35140
C1113       C  0.28275483  0.37959359  0.89022146    -0.26590
C1114       C  0.25411834  0.38126817  0.87178127    -0.14660
C1115       C  0.24748702  0.41129111  0.85648799     0.35970
C1116       C  0.27154460  0.43511649  0.85464438    -0.26040
C1117       C  0.30112649  0.43125702  0.87025046    -0.15280
C1118       C  0.30620887  0.40383078  0.88938659     0.37050
N1119       N  0.33572755  0.40003109  0.90700809    -0.89530
H1120       H  0.28733484  0.35872526  0.90507683     0.18170
H1121       H  0.26655536  0.45741127  0.84200113     0.18160
N1122       N  0.21596758  0.41906359  0.84502596    -0.88560
H1123       H  0.33667279  0.37740744  0.91804452     0.35540
H1124       H  0.33574884  0.41707305  0.92553815     0.40630
H1125       H  0.21773367  0.42591738  0.82100095     0.40250
H1126       H  0.20760642  0.43904763  0.85793980     0.35140
C1127       C  0.18679781  0.32389694  0.12879784    -0.26590
C1128       C  0.20852290  0.35008861  0.13194964    -0.14660
C1129       C  0.20472750  0.37606807  0.10961635     0.35970
C1130       C  0.18092972  0.37454010  0.08581895    -0.26040
C1131       C  0.15947589  0.34868275  0.08360081    -0.15280
C1132       C  0.16283419  0.32282893  0.10530224     0.37050
N1133       N  0.14157383  0.29567478  0.10512429    -0.89530
H1134       H  0.18798003  0.30404952  0.14561011     0.18170
H1135       H  0.17865290  0.39464507  0.06937488     0.18160
N1136       N  0.22274115  0.40541244  0.11179252    -0.88560
H1137       H  0.14397052  0.28340117  0.08334505     0.35540
H1138       H  0.11799159  0.30403852  0.10750122     0.40630
H1139       H  0.20677996  0.42471609  0.11478671     0.40250
H1140       H  0.23479647  0.40873790  0.09011208     0.35140
C1141       C  0.21093478  0.37302990  0.92460599    -0.26590
C1142       C  0.21290455  0.34676591  0.90271752    -0.14660
C1143       C  0.19266197  0.31916566  0.90932535     0.35970
C1144       C  0.17084364  0.32032925  0.93482565    -0.26040
C1145       C  0.16623687  0.34838047  0.95295608    -0.15280
C1146       C  0.18781214  0.37424656  0.94911272     0.37050
N1147       N  0.18584450  0.40207930  0.96974989    -0.89530
H1148       H  0.22577543  0.39413359  0.92172857     0.18170
H1149       H  0.15506824  0.29986707  0.93837023     0.18160
N1150       N  0.19080854  0.29084618  0.88908895    -0.88560
H1151       H  0.20307605  0.41927901  0.96358098     0.35540
H1152       H  0.19144444  0.39450182  0.99299069     0.40630
H1153       H  0.20398530  0.29296032  0.86813604     0.40250
H1154       H  0.16701489  0.28834526  0.88137168     0.35140
C1155       C  0.85954544  0.30268006  0.29305399    -0.26590
C1156       C  0.83170437  0.31987323  0.28293187    -0.14660
C1157       C  0.80259273  0.30494801  0.29185401     0.35970
C1158       C  0.80184562  0.28852857  0.32099277    -0.26040
C1159       C  0.82988308  0.27372474  0.33393241    -0.15280
C1160       C  0.85802788  0.27729682  0.31523659     0.37050
N1161       N  0.88379053  0.25442876  0.31593934    -0.89530
H1162       H  0.88303441  0.30829697  0.28373885     0.18170
H1163       H  0.77840481  0.28331580  0.33061577     0.18160
N1164       N  0.78050743  0.29307848  0.26808280    -0.88560
H1165       H  0.90537701  0.26696785  0.31868803     0.35540
H1166       H  0.88464674  0.24306367  0.29354674     0.40630
H1167       H  0.78821562  0.29742203  0.24472782     0.40250
H1168       H  0.75743784  0.30189366  0.27207428     0.35140
C1169       C  0.81503526  0.40948776  0.28313653    -0.26590
C1170       C  0.83466406  0.38173616  0.28780746    -0.14660
C1171       C  0.85665516  0.38331611  0.31410659     0.35970
C1172       C  0.85528949  0.40890209  0.33625940    -0.26040
C1173       C  0.83302253  0.43397211  0.33311174    -0.15280
C1174       C  0.81310551  0.43466141  0.30587497     0.37050
N1175       N  0.79154651  0.46137957  0.30089745    -0.89530
H1176       H  0.80106236  0.41226139  0.26152772     0.18170
H1177       H  0.87197266  0.40907807  0.35626013     0.18160
N1178       N  0.88202680  0.36032027  0.31765996    -0.88560
H1179       H  0.77823242  0.45819341  0.27984002     0.35540
H1180       H  0.80547268  0.48209875  0.29768120     0.40630
H1181       H  0.88021772  0.34990956  0.34037904     0.40250
H1182       H  0.90390818  0.37259595  0.31654820     0.35140
C1183       C  0.05417755  0.37920131  0.21249664    -0.26590
C1184       C  0.04982843  0.35236181  0.19243197    -0.14660
C1185       C  0.07017931  0.32539359  0.19663488     0.35970
C1186       C  0.09381395  0.32595508  0.22050824    -0.26040
C1187       C  0.09807670  0.35241653  0.24180504    -0.15280
C1188       C  0.07818731  0.38008496  0.23619402     0.37050
N1189       N  0.08332892  0.41028410  0.25218874    -0.89530
H1190       H  0.03934329  0.40048838  0.20917272     0.18170
H1191       H  0.10970198  0.30529082  0.22207282     0.18160
N1192       N  0.06849614  0.29746917  0.17633769    -0.88560
H1193       H  0.06202265  0.41696190  0.26365925     0.35540
H1194       H  0.08856385  0.42779667  0.23499030     0.40630
H1195       H  0.07122075  0.30473714  0.15253459     0.40250
H1196       H  0.04608786  0.28657862  0.17919482     0.35140
C1197       C  0.89971180  0.32722511  0.20220357    -0.26590
C1198       C  0.91653886  0.35606022  0.19762856    -0.14660
C1199       C  0.91016095  0.38253244  0.21801755     0.35970
C1200       C  0.88555494  0.38023149  0.24099013    -0.26040
C1201       C  0.86680105  0.35188058  0.24444476    -0.15280
C1202       C  0.87482213  0.32495010  0.22440050     0.37050
N1203       N  0.85530376  0.29643340  0.22377254    -0.89530
H1204       H  0.90427075  0.30660602  0.18679283     0.18170
H1205       H  0.88007733  0.40169397  0.25470041     0.18160
N1206       N  0.92811744  0.41197805  0.21492847    -0.88560
H1207       H  0.84576496  0.29367393  0.20071834     0.35540
H1208       H  0.87006078  0.27651146  0.22842399     0.40630
H1209       H  0.95191719  0.40688203  0.22121807     0.40250
H1210       H  0.92000348  0.42940866  0.23120118     0.35140
C1211       C  0.25007353  0.59359795  0.18117945    -0.26590
C1212       C  0.25137344  0.61712061  0.15661128    -0.14660
C1213       C  0.27394756  0.61179653  0.13096623     0.35970
C1214       C  0.29420732  0.58500818  0.13178970    -0.26040
C1215       C  0.29510281  0.56413260  0.15791822    -0.15280
C1216       C  0.27209571  0.56792584  0.18248433     0.37050
N1217       N  0.27026370  0.54607225  0.20894195    -0.89530
H1218       H  0.23309962  0.59586106  0.20060044     0.18170
H1219       H  0.31136723  0.58202040  0.11250784     0.18160
N1220       N  0.27873164  0.63348593  0.10438983    -0.88560
H1221       H  0.29144233  0.54769498  0.22231674     0.35540
H1222       H  0.26795124  0.52257470  0.19996379     0.40630
H1223       H  0.26563483  0.65471778  0.10590596     0.40250
H1224       H  0.30271791  0.64093266  0.10488200     0.35140
C1225       C  0.17508365  0.61726370  0.08779103    -0.26590
C1226       C  0.16591346  0.64599511  0.07312475    -0.14660
C1227       C  0.18274857  0.67452438  0.08079454     0.35970
C1228       C  0.20473608  0.67451580  0.10645399    -0.26040
C1229       C  0.21033729  0.64673544  0.12532534    -0.15280
C1230       C  0.19699534  0.61694479  0.11316136     0.37050
N1231       N  0.20237839  0.58643743  0.12857545    -0.89530
H1232       H  0.16369573  0.59474320  0.08093734     0.18170
H1233       H  0.21738628  0.69655700  0.11068172     0.18160
N1234       N  0.17763807  0.70347207  0.06248397    -0.88560
H1235       H  0.21247093  0.57059921  0.11181485     0.35540
H1236       H  0.18036848  0.57677227  0.13570643     0.40630
H1237       H  0.18576684  0.69894828  0.03921035     0.40250
H1238       H  0.19151905  0.72250997  0.07143128     0.35140
C1239       C  0.17827405  0.67225448  0.93783922    -0.26590
C1240       C  0.16492601  0.64248098  0.94538189    -0.14660
C1241       C  0.17995885  0.61429053  0.93363063     0.35970
C1242       C  0.20615998  0.61714110  0.91247273    -0.26040
C1243       C  0.21562353  0.64717863  0.89947474    -0.15280
C1244       C  0.20286539  0.67520003  0.91556920     0.37050
N1245       N  0.21415246  0.70725279  0.90990047    -0.89530
H1246       H  0.16889700  0.69418943  0.94859379     0.18170
H1247       H  0.21866374  0.59543866  0.90651587     0.18160
N1248       N  0.16840129  0.58287671  0.94249637    -0.88560
H1249       H  0.22288039  0.71677442  0.93147313     0.35540
H1250       H  0.19487018  0.72151719  0.90219806     0.40630
H1251       H  0.17370178  0.57956182  0.96676620     0.40250
H1252       H  0.18069974  0.56474750  0.93004343     0.35140
C1253       C  0.28553652  0.62351091  0.84671040    -0.26590
C1254       C  0.25291659  0.61886432  0.85570307    -0.14660
C1255       C  0.24268063  0.58570005  0.85466714     0.35970
C1256       C  0.26586867  0.56101289  0.85748200    -0.26040
C1257       C  0.29863410  0.56825824  0.85785555    -0.15280
C1258       C  0.30856459  0.59928117  0.84975697     0.37050
N1259       N  0.34212711  0.60635507  0.84568918    -0.89530
H1260       H  0.29394713  0.64661806  0.83849806     0.18170
H1261       H  0.25825097  0.53605087  0.85912331     0.18160
N1262       N  0.20998329  0.57564237  0.84963006    -0.88560
H1263       H  0.34549211  0.63094013  0.84129588     0.35540
H1264       H  0.35005306  0.59407159  0.82526145     0.40630
H1265       H  0.19410757  0.59486965  0.84954353     0.40250
H1266       H  0.20311415  0.56044264  0.86833137     0.35140
C1267       C  0.80465765  0.68945056  0.29085507    -0.26590
C1268       C  0.83412728  0.68150553  0.27617565    -0.14660
C1269       C  0.85948240  0.70427407  0.28266118     0.35970
C1270       C  0.85696578  0.72558405  0.30885658    -0.26040
C1271       C  0.82875209  0.72875958  0.32727484    -0.15280
C1272       C  0.80190157  0.71012426  0.31687772     0.37050
N1273       N  0.77161010  0.70931859  0.33296602    -0.89530
H1274       H  0.78247399  0.67892358  0.28247273     0.18170
H1275       H  0.87787003  0.74007017  0.31412499     0.18160
N1276       N  0.88489291  0.71211698  0.26096111    -0.88560
H1277       H  0.75928671  0.73106125  0.33019871     0.35540
H1278       H  0.77500213  0.70306654  0.35689378     0.40630
H1279       H  0.88090918  0.70473688  0.23752595     0.40250
H1280       H  0.90696971  0.70453180  0.27022797     0.35140
C1281       C  0.89568324  0.64693822  0.24630785    -0.26590
C1282       C  0.86440989  0.64522778  0.23289228    -0.14660
C1283       C  0.86278766  0.63557806  0.19985472     0.35970
C1284       C  0.89001663  0.63681086  0.18065872    -0.26040
C1285       C  0.91993132  0.64405495  0.19343372    -0.15280
C1286       C  0.92336868  0.64752099  0.22694850     0.37050
N1287       N  0.95421193  0.65111372  0.24210277    -0.89530
H1288       H  0.89844620  0.64905261  0.27204823     0.18170
H1289       H  0.88778579  0.63111479  0.15533731     0.18160
N1290       N  0.83449687  0.62205007  0.18569663    -0.88560
H1291       H  0.95479936  0.67387452  0.25299357     0.35540
H1292       H  0.97275587  0.65071781  0.22534002     0.40630
H1293       H  0.83974119  0.59861354  0.17786438     0.40250
H1294       H  0.82855502  0.63596050  0.16569576     0.35140
C1295       C  0.80671510  0.61740352  0.30167761    -0.26590
C1296       C  0.83197235  0.61919352  0.27883173    -0.14660
C1297       C  0.85373186  0.59209146  0.27939337     0.35970
C1298       C  0.85429564  0.57084895  0.30585977    -0.26040
C1299       C  0.83062823  0.57168064  0.32951998    -0.15280
C1300       C  0.80546416  0.59415941  0.32621704     0.37050
N1301       N  0.77810116  0.59297518  0.34720245    -0.89530
H1302       H  0.78611512  0.63266003  0.29971290     0.18170
H1303       H  0.87203424  0.55167130  0.30666613     0.18160
N1304       N  0.87275566  0.58345536  0.25200623    -0.88560
H1305       H  0.76143643  0.61100019  0.34149370     0.35540
H1306       H  0.78583614  0.59771875  0.37055586     0.40630
H1307       H  0.85684221  0.57615464  0.23397859     0.40250
H1308       H  0.88756532  0.56359466  0.25673305     0.35140
C1309       C  0.21286021  0.66698614  0.21518841    -0.26590
C1310       C  0.20565775  0.64901326  0.18699459    -0.14660
C1311       C  0.17550528  0.63271829  0.18757154     0.35970
C1312       C  0.16048995  0.62720250  0.21679034    -0.26040
C1313       C  0.16393743  0.64913862  0.24249276    -0.15280
C1314       C  0.19065552  0.67047836  0.24044791     0.37050
N1315       N  0.19551987  0.69643670  0.26255515    -0.89530
H1316       H  0.23471589  0.68079655  0.21730494     0.18170
H1317       H  0.14084174  0.61013977  0.21699370     0.18160
N1318       N  0.15566049  0.62963772  0.15959914    -0.88560
H1319       H  0.19487250  0.71809958  0.24975594     0.35540
H1320       H  0.21851570  0.69409625  0.27242917     0.40630
H1321       H  0.14882551  0.65296547  0.15278133     0.40250
H1322       H  0.13439835  0.61712709  0.16431306     0.35140
C1323       C  0.08269071  0.62539600  0.24147607    -0.26590
C1324       C  0.10465051  0.65152541  0.24353850    -0.14660
C1325       C  0.10143362  0.67626192  0.22004247     0.35970
C1326       C  0.07748068  0.67442187  0.19629964    -0.26040
C1327       C  0.05659747  0.64796056  0.19426830    -0.15280
C1328       C  0.05915885  0.62343793  0.21758358     0.37050
N1329       N  0.03817577  0.59604484  0.21790928    -0.89530
H1330       H  0.08439921  0.60477636  0.25708690     0.18170
H1331       H  0.07587896  0.69355083  0.17869767     0.18160
N1332       N  0.12324359  0.70299106  0.21965500    -0.88560
H1333       H  0.04178663  0.58247368  0.19707875     0.35540
H1334       H  0.01441256  0.60419432  0.21867758     0.40630
H1335       H  0.10987062  0.72431771  0.22148970     0.40250
H1336       H  0.13496485  0.70304875  0.19753492     0.35140
C1337       C  0.10739202  0.61978632  0.31125286    -0.26590
C1338       C  0.13300591  0.62030516  0.28890725    -0.14660
C1339       C  0.15530180  0.59399332  0.28996319     0.35970
C1340       C  0.15155278  0.56947691  0.31268554    -0.26040
C1341       C  0.12634613  0.56981560  0.33469140    -0.15280
C1342       C  0.10370996  0.59500070  0.33372107     0.37050
N1343       N  0.07748648  0.59583162  0.35602986    -0.89530
H1344       H  0.08984391  0.63912299  0.31104690     0.18170
H1345       H  0.16901307  0.55001571  0.31335465     0.18160
N1346       N  0.18261660  0.59196285  0.26933357    -0.88560
H1347       H  0.06309550  0.61621181  0.35228055     0.35540
H1348       H  0.08727906  0.59819654  0.37898766     0.40630
H1349       H  0.18120497  0.57033616  0.25638004     0.40250
H1350       H  0.20338187  0.59118257  0.28347178     0.35140
C1351       C  0.29986398  0.29128505  0.83933226    -0.26590
C1352       C  0.30692192  0.27095447  0.86556307    -0.14660
C1353       C  0.28535122  0.27440868  0.89197615     0.35970
C1354       C  0.26225126  0.29923634  0.89244582    -0.26040
C1355       C  0.25680652  0.32099717  0.86673889    -0.15280
C1356       C  0.27842017  0.31735920  0.84073405     0.37050
N1357       N  0.28226202  0.34179737  0.81710389    -0.89530
H1358       H  0.31106717  0.28749852  0.81654227     0.18170
H1359       H  0.24965299  0.30168470  0.91478629     0.18160
N1360       N  0.28516079  0.25281237  0.91863740    -0.88560
H1361       H  0.27928165  0.33125007  0.79446863     0.35540
H1362       H  0.30571449  0.35069012  0.81862476     0.40630
H1363       H  0.26254263  0.24197509  0.91992743     0.40250
H1364       H  0.28883957  0.26618165  0.93964441     0.35140
C1365       C  0.37143163  0.29375571  0.83826049    -0.26590
C1366       C  0.36841372  0.27172059  0.86397550    -0.14660
C1367       C  0.39519019  0.27222265  0.88592876     0.35970
C1368       C  0.41507896  0.29952651  0.88780643    -0.26040
C1369       C  0.41335641  0.32408162  0.86504466    -0.15280
C1370       C  0.39221041  0.32009714  0.83894660     0.37050
N1371       N  0.39102849  0.34219038  0.81260048    -0.89530
H1372       H  0.35923179  0.28969655  0.81597311     0.18170
H1373       H  0.43414943  0.29996739  0.90556489     0.18160
N1374       N  0.40656402  0.24383926  0.90202761    -0.88560
H1375       H  0.41288662  0.34142319  0.80042372     0.35540
H1376       H  0.38701106  0.36549025  0.82149847     0.40630
H1377       H  0.41015136  0.24950081  0.92623210     0.40250
H1378       H  0.42915009  0.23794892  0.89277308     0.35140
C1379       C  0.34459340  0.17065012  0.11207122    -0.26590
C1380       C  0.33614142  0.18177331  0.08199365    -0.14660
C1381       C  0.33094456  0.21520651  0.07758946     0.35970
C1382       C  0.33269135  0.23613776  0.10429846    -0.26040
C1383       C  0.33672367  0.22455915  0.13608859    -0.15280
C1384       C  0.34602156  0.19118271  0.13856998     0.37050
N1385       N  0.35893414  0.17740284  0.16708852    -0.89530
H1386       H  0.35077511  0.14534558  0.11513326     0.18170
H1387       H  0.32911957  0.26176589  0.10040288     0.18160
N1388       N  0.32358369  0.22877115  0.04677936    -0.88560
H1389       H  0.38207461  0.16882354  0.16233189     0.35540
H1390       H  0.34442756  0.15784389  0.17313397     0.40630
H1391       H  0.32242041  0.21094288  0.02907944     0.40250
H1392       H  0.34242825  0.24417677  0.04064903     0.35140
C1393       C  0.34786764  0.23286911  0.92359658    -0.26590
C1394       C  0.33712207  0.22369439  0.89261457    -0.14660
C1395       C  0.31870015  0.19454658  0.89175070     0.35970
C1396       C  0.32009357  0.17268725  0.91722132    -0.26040
C1397       C  0.33727827  0.17967210  0.94501785    -0.15280
C1398       C  0.35037976  0.21062494  0.94892756     0.37050
N1399       N  0.36444856  0.22000709  0.97902185    -0.89530
H1400       H  0.35395928  0.25781061  0.92831849     0.18170
H1401       H  0.30644772  0.15045161  0.91569595     0.18160
N1402       N  0.29456597  0.18906687  0.86797916    -0.88560
H1403       H  0.37179839  0.24412729  0.97832800     0.35540
H1404       H  0.38524483  0.20621306  0.98228325     0.40630
H1405       H  0.27216145  0.18976204  0.87919559     0.40250
H1406       H  0.29746762  0.16583846  0.85863173     0.35140
C1407       C  0.30388607  0.07238348  0.21364041    -0.26590
C1408       C  0.33050516  0.07055209  0.19329819    -0.14660
C1409       C  0.35547929  0.09302845  0.19695336     0.35970
C1410       C  0.35292476  0.11703134  0.22054660    -0.26040
C1411       C  0.32669124  0.11893291  0.24202840    -0.15280
C1412       C  0.30125243  0.09609744  0.23768110     0.37050
N1413       N  0.27261752  0.09646176  0.25683271    -0.89530
H1414       H  0.28461119  0.05508348  0.21060506     0.18170
H1415       H  0.37244012  0.13411525  0.22299293     0.18160
N1416       N  0.38301103  0.09212793  0.17625255    -0.88560
H1417       H  0.25879116  0.07576439  0.25290059     0.35540
H1418       H  0.25830002  0.11585306  0.24981329     0.40630
H1419       H  0.39652203  0.07176257  0.18243841     0.40250
H1420       H  0.39792994  0.11196105  0.18056025     0.35140
C1421       C  0.39804237  0.82903648  0.32488850    -0.26590
C1422       C  0.41545737  0.85768381  0.32861871    -0.14660
C1423       C  0.40996662  0.88288424  0.30639179     0.35970
C1424       C  0.38513360  0.87980073  0.28324741    -0.26040
C1425       C  0.36330770  0.85359979  0.28387164    -0.15280
C1426       C  0.37216856  0.82679339  0.30348884     0.37050
N1427       N  0.35336461  0.79794313  0.30391970    -0.89530
H1428       H  0.40281723  0.80869974  0.34049364     0.18170
H1429       H  0.38219525  0.89896496  0.26612389     0.18160
N1430       N  0.42944080  0.91149550  0.30721478    -0.88560
H1431       H  0.34488654  0.79446980  0.32721450     0.35540
H1432       H  0.36829668  0.77848720  0.29803126     0.40630
H1433       H  0.42326984  0.92443709  0.32784691     0.40250
H1434       H  0.42380372  0.92657845  0.28794469     0.35140
C1435       C  0.26936719  0.85512348  0.28489266    -0.26590
C1436       C  0.30233480  0.85640418  0.29329736    -0.14660
C1437       C  0.30883403  0.86188532  0.32634433     0.35970
C1438       C  0.28522810  0.85730343  0.34899625    -0.26040
C1439       C  0.25208983  0.85669441  0.34185969    -0.15280
C1440       C  0.24438699  0.85518055  0.30815087     0.37050
N1441       N  0.21196983  0.85188790  0.29646614    -0.89530
H1442       H  0.26288851  0.85325244  0.25978838     0.18170
H1443       H  0.29465766  0.85616179  0.37291315     0.18160
N1444       N  0.33832454  0.87552851  0.33793930    -0.88560
H1445       H  0.20749343  0.87015129  0.27982437     0.35540
H1446       H  0.19523802  0.85498129  0.31469550     0.40630
H1447       H  0.34768019  0.86051035  0.35580656     0.40250
H1448       H  0.33326134  0.89787085  0.34858613     0.35140
C1449       C  0.31688346  0.87889642  0.21068006    -0.26590
C1450       C  0.32408784  0.88422987  0.24357029    -0.14660
C1451       C  0.32624169  0.91735843  0.25305442     0.35970
C1452       C  0.32766113  0.94200744  0.22941312    -0.26040
C1453       C  0.32648311  0.93450930  0.19655054    -0.15280
C1454       C  0.32166706  0.90233621  0.18737868     0.37050
N1455       N  0.32250351  0.89207667  0.15451824    -0.89530
H1456       H  0.30914653  0.85568698  0.20178989     0.18170
H1457       H  0.32991952  0.96706547  0.23663547     0.18160
N1458       N  0.32742245  0.92602646  0.28636557    -0.88560
H1459       H  0.34160355  0.87584199  0.15207303     0.35540
H1460       H  0.32730683  0.91090973  0.13875284     0.40630
H1461       H  0.30447516  0.92229364  0.29566356     0.40250
H1462       H  0.33195534  0.95071670  0.28906248     0.35140
C1463       C  0.60367969  0.30189049  0.13994077    -0.26590
C1464       C  0.60297167  0.27803902  0.16429174    -0.14660
C1465       C  0.57605667  0.27919652  0.18569705     0.35970
C1466       C  0.55140620  0.30166382  0.18084830    -0.26040
C1467       C  0.55269930  0.32484534  0.15671843    -0.15280
C1468       C  0.57957986  0.32526201  0.13613457     0.37050
N1469       N  0.58448540  0.34964650  0.11220790    -0.89530
H1470       H  0.62401495  0.30275615  0.12380951     0.18170
H1471       H  0.53127341  0.30167756  0.19728012     0.18160
N1472       N  0.57386048  0.25985935  0.21396098    -0.88560
H1473       H  0.60604885  0.36110620  0.11794563     0.35540
H1474       H  0.56718242  0.36777770  0.11309955     0.40630
H1475       H  0.55256648  0.24655039  0.21275674     0.40250
H1476       H  0.57249459  0.27512709  0.23393267     0.35140
C1477       C  0.65738034  0.18434912  0.10866805    -0.26590
C1478       C  0.63456878  0.18716065  0.08425910    -0.14660
C1479       C  0.61262847  0.21309509  0.08526064     0.35970
C1480       C  0.61284766  0.23400818  0.11168454    -0.26040
C1481       C  0.63625358  0.23249525  0.13662155    -0.15280
C1482       C  0.65872952  0.20598300  0.13449516     0.37050
N1483       N  0.68273878  0.19877438  0.15828051    -0.89530
H1484       H  0.67418937  0.16429674  0.10819288     0.18170
H1485       H  0.59327531  0.25094321  0.11204094     0.18160
N1486       N  0.58976367  0.21940281  0.06002325    -0.88560
H1487       H  0.67511926  0.17856549  0.17112443     0.35540
H1488       H  0.68662558  0.21744264  0.17435275     0.40630
H1489       H  0.59426698  0.20542840  0.03972755     0.40250
H1490       H  0.59331231  0.24317209  0.05241086     0.35140
C1491       C  0.62931683  0.21847509  0.95364863    -0.26590
C1492       C  0.63438063  0.18557997  0.94749661    -0.14660
C1493       C  0.64082257  0.17541776  0.91611768     0.35970
C1494       C  0.63949230  0.19781759  0.89146858    -0.26040
C1495       C  0.62962490  0.23063115  0.89585071    -0.15280
C1496       C  0.62829272  0.24134796  0.92868414     0.37050
N1497       N  0.62730773  0.27487270  0.93803845    -0.89530
H1498       H  0.62666538  0.22660395  0.97822443     0.18170
H1499       H  0.64657612  0.18820754  0.86851897     0.18160
N1500       N  0.64812644  0.14237857  0.90784940    -0.88560
H1501       H  0.60653141  0.27888040  0.95148591     0.35540
H1502       H  0.62634335  0.29037413  0.91851657     0.40630
H1503       H  0.64729806  0.12693139  0.92747790     0.40250
H1504       H  0.67167367  0.14169224  0.89926781     0.35140
C1505       C  0.57168146  0.27395490  0.89086299    -0.26590
C1506       C  0.59157677  0.27087939  0.86368179    -0.14660
C1507       C  0.57885268  0.28448716  0.83459033     0.35970
C1508       C  0.55475740  0.30819953  0.83645572    -0.26040
C1509       C  0.54171609  0.31748362  0.86592622    -0.15280
C1510       C  0.54789502  0.29796735  0.89282431     0.37050
N1511       N  0.53003667  0.30238790  0.92194763    -0.89530
H1512       H  0.57432793  0.25808930  0.91095596     0.18170
H1513       H  0.54738967  0.32058213  0.81481108     0.18160
N1514       N  0.59030228  0.27503969  0.80331886    -0.88560
H1515       H  0.53794359  0.28637671  0.93963524     0.35540
H1516       H  0.50611882  0.29646213  0.91703800     0.40630
H1517       H  0.61407529  0.28228804  0.80051031     0.40250
H1518       H  0.57719199  0.28635797  0.78511808     0.35140
C1519       C  0.65528716  0.88716594  0.21823137    -0.26590
C1520       C  0.62870596  0.88428371  0.23909760    -0.14660
C1521       C  0.60194527  0.90515795  0.23269916     0.35970
C1522       C  0.60446966  0.92987688  0.20999981    -0.26040
C1523       C  0.63218736  0.93421764  0.19175113    -0.15280
C1524       C  0.65798793  0.91242276  0.19586750     0.37050
N1525       N  0.68643251  0.91512026  0.17664449    -0.89530
H1526       H  0.67466006  0.86974897  0.21999636     0.18170
H1527       H  0.58393308  0.94556858  0.20624395     0.18160
N1528       N  0.57120951  0.90067847  0.24730404    -0.88560
H1529       H  0.70193877  0.89568374  0.18086484     0.35540
H1530       H  0.69871042  0.93575392  0.18431423     0.40630
H1531       H  0.55425876  0.89638761  0.22924982     0.40250
H1532       H  0.56484464  0.92208158  0.25908526     0.35140
C1533       C  0.57465568  0.83357466  0.28693535    -0.26590
C1534       C  0.59901410  0.85749505  0.28663397    -0.14660
C1535       C  0.59616018  0.88309023  0.30983467     0.35970
C1536       C  0.57075769  0.88339818  0.33156346    -0.26040
C1537       C  0.54755301  0.85910862  0.33184949    -0.15280
C1538       C  0.54864544  0.83470233  0.30809656     0.37050
N1539       N  0.52382194  0.81078864  0.30426066    -0.89530
H1540       H  0.57563629  0.81273290  0.27147119     0.18170
H1541       H  0.56987820  0.90252099  0.34937090     0.18160
N1542       N  0.61856381  0.90919485  0.31279574    -0.88560
H1543       H  0.51645809  0.81124196  0.28027655     0.35540
H1544       H  0.50317943  0.81713687  0.31684334     0.40630
H1545       H  0.62218859  0.92054683  0.29088724     0.40250
H1546       H  0.64010599  0.90088071  0.32236525     0.35140
C1547       C  0.64774181  0.20467365  0.24501900    -0.26590
C1548       C  0.62271588  0.18156178  0.24348691    -0.14660
C1549       C  0.60171842  0.18373620  0.21632391     0.35970
C1550       C  0.60659290  0.20733848  0.19312084    -0.26040
C1551       C  0.63040475  0.23143126  0.19580787    -0.15280
C1552       C  0.65121459  0.22963377  0.22278646     0.37050
N1553       N  0.67743025  0.25153765  0.22734851    -0.89530
H1554       H  0.66626032  0.20356331  0.26300776     0.18170
H1555       H  0.59044294  0.20753247  0.17269032     0.18160
N1556       N  0.57567639  0.16187472  0.21031255    -0.88560
H1557       H  0.69884322  0.23830013  0.22784690     0.35540
H1558       H  0.67473348  0.26277230  0.24966364     0.40630
H1559       H  0.56623503  0.15263457  0.23135297     0.40250
H1560       H  0.58397036  0.14307391  0.19574743     0.35140
C1561       C  0.60582874  0.07221009  0.21691784    -0.26590
C1562       C  0.63151317  0.07264266  0.19550502    -0.14660
C1563       C  0.65399625  0.09790676  0.19773511     0.35970
C1564       C  0.65028597  0.12177406  0.22122537    -0.26040
C1565       C  0.62461923  0.12180456  0.24365615    -0.15280
C1566       C  0.60147985  0.09635551  0.24014412     0.37050
N1567       N  0.57208466  0.09540344  0.25775516    -0.89530
H1568       H  0.58794317  0.05329930  0.21493268     0.18170
H1569       H  0.66788052  0.14101195  0.22191623     0.18160
N1570       N  0.68010017  0.10091283  0.17568920    -0.88560
H1571       H  0.55287508  0.09600052  0.24155814     0.35540
H1572       H  0.57110707  0.07345183  0.27005212     0.40630
H1573       H  0.67079534  0.10166700  0.15239801     0.40250
H1574       H  0.69502795  0.08073026  0.17796854     0.35140
C1575       C  0.59183716  0.12508747  0.31219799    -0.26590
C1576       C  0.59232580  0.15043139  0.28941073    -0.14660
C1577       C  0.56722949  0.17398831  0.29142440     0.35970
C1578       C  0.54290522  0.17069741  0.31435605    -0.26040
C1579       C  0.54222896  0.14468182  0.33564500    -0.15280
C1580       C  0.56653403  0.12105759  0.33393738     0.37050
N1581       N  0.56595551  0.09335779  0.35463593    -0.89530
H1582       H  0.61096566  0.10729351  0.31194781     0.18170
H1583       H  0.52445798  0.18916386  0.31577638     0.18160
N1584       N  0.56689211  0.20252315  0.27216765    -0.88560
H1585       H  0.58643142  0.07910288  0.35125265     0.35540
H1586       H  0.54659714  0.07898419  0.34747834     0.40630
H1587       H  0.56750584  0.22267318  0.28733280     0.40250
H1588       H  0.54519982  0.20320027  0.25949068     0.35140
C1589       C  0.83569047  0.69262315  0.38382248    -0.26590
C1590       C  0.82998288  0.72615994  0.38821334    -0.14660
C1591       C  0.82897578  0.73780687  0.42041961     0.35970
C1592       C  0.82901146  0.71588596  0.44607924    -0.26040
C1593       C  0.83241520  0.68268258  0.44061903    -0.15280
C1594       C  0.83734759  0.67114559  0.40930014     0.37050
N1595       N  0.84490359  0.63793026  0.40221888    -0.89530
H1596       H  0.84005946  0.68218657  0.36051415     0.18170
H1597       H  0.82690513  0.72489898  0.47040191     0.18160
N1598       N  0.82857367  0.77184464  0.42710653    -0.88560
H1599       H  0.82650360  0.62882073  0.38783814     0.35540
H1600       H  0.84580390  0.62356785  0.42264235     0.40630
H1601       H  0.84908094  0.77734719  0.44055344     0.40250
H1602       H  0.80876981  0.77716888  0.44149258     0.35140
C1603       C  0.71207582  0.83366966  0.60506856    -0.26590
C1604       C  0.70824665  0.85548114  0.63097319    -0.14660
C1605       C  0.68541495  0.88091312  0.62678576     0.35970
C1606       C  0.66512386  0.88159768  0.60018950    -0.26040
C1607       C  0.66610196  0.85748504  0.57688218    -0.15280
C1608       C  0.69117729  0.83414703  0.57829583     0.37050
N1609       N  0.69670489  0.81108746  0.55302710    -0.89530
H1610       H  0.73093859  0.81577086  0.60540880     0.18170
H1611       H  0.64697527  0.90038688  0.59893197     0.18160
N1612       N  0.68138191  0.90553192  0.65051350    -0.88560
H1613       H  0.72015802  0.81449952  0.54485101     0.35540
H1614       H  0.68209096  0.81563267  0.53322394     0.40630
H1615       H  0.65755047  0.90502872  0.65811629     0.40250
H1616       H  0.68550007  0.92790900  0.63974741     0.35140
C1617       C  0.76603640  0.89093904  0.63440364    -0.26590
C1618       C  0.74630621  0.88679887  0.66187255    -0.14660
C1619       C  0.74726325  0.91183463  0.68553848     0.35970
C1620       C  0.77122089  0.93587932  0.68342430    -0.26040
C1621       C  0.79298217  0.93688269  0.65776397    -0.15280
C1622       C  0.78920080  0.91509966  0.63219284     0.37050
N1623       N  0.81045552  0.91582772  0.60508118    -0.89530
H1624       H  0.76553417  0.87298240  0.61548906     0.18170
H1625       H  0.77330683  0.95375805  0.70233545     0.18160
N1626       N  0.72600538  0.91225575  0.71254064    -0.88560
H1627       H  0.80379848  0.89860638  0.58793083     0.35540
H1628       H  0.83331861  0.90917023  0.61317197     0.40630
H1629       H  0.70286106  0.91744040  0.70446761     0.40250
H1630       H  0.73200492  0.93076104  0.72857132     0.35140
C1631       C  0.27744653  0.87775052  0.73834709    -0.26590
C1632       C  0.30209483  0.85398336  0.73715272    -0.14660
C1633       C  0.29747450  0.82862252  0.71427198     0.35970
C1634       C  0.26942805  0.82744081  0.69627895    -0.26040
C1635       C  0.24991496  0.85475374  0.69145440    -0.15280
C1636       C  0.25061403  0.87721926  0.71740598     0.37050
N1637       N  0.22333077  0.89717457  0.72485345    -0.89530
H1638       H  0.27884520  0.89759639  0.75502639     0.18170
H1639       H  0.26379915  0.80477285  0.68487470     0.18160
N1640       N  0.32077825  0.80402492  0.70718684    -0.88560
H1641       H  0.22799161  0.91205645  0.74461333     0.35540
H1642       H  0.20446222  0.88209478  0.73151461     0.40630
H1643       H  0.32871479  0.79198591  0.72755209     0.40250
H1644       H  0.33997601  0.81421820  0.69487567     0.35140
C1645       C  0.38518886  0.83228903  0.73483424    -0.26590
C1646       C  0.36155836  0.85704221  0.73562590    -0.14660
C1647       C  0.36462362  0.88204904  0.71203860     0.35970
C1648       C  0.39095704  0.88243927  0.69128581    -0.26040
C1649       C  0.41428803  0.85809704  0.69158657    -0.15280
C1650       C  0.41190189  0.83322551  0.71457579     0.37050
N1651       N  0.43614380  0.80866276  0.71862949    -0.89530
H1652       H  0.38335323  0.81123355  0.74978876     0.18170
H1653       H  0.39221548  0.90131513  0.67338412     0.18160
N1654       N  0.34072391  0.90645122  0.70657954    -0.88560
H1655       H  0.44282836  0.80862483  0.74281489     0.35540
H1656       H  0.45724875  0.81461567  0.70673318     0.40630
H1657       H  0.33440694  0.91817252  0.72774933     0.40250
H1658       H  0.32063137  0.89609305  0.69571687     0.35140
C1659       C  0.30884434  0.91084341  0.83155961    -0.26590
C1660       C  0.33409487  0.93300778  0.83284340    -0.14660
C1661       C  0.35788255  0.93189755  0.80898001     0.35970
C1662       C  0.35639736  0.90801407  0.78494757    -0.26040
C1663       C  0.33161812  0.88454494  0.78376698    -0.15280
C1664       C  0.30756237  0.88661691  0.80801568     0.37050
N1665       N  0.28150065  0.86408101  0.80897406    -0.89530
H1666       H  0.29023365  0.91167513  0.84964214     0.18170
H1667       H  0.37576603  0.90741721  0.76788286     0.18160
N1668       N  0.38350363  0.95514763  0.80907699    -0.88560
H1669       H  0.25996511  0.87702303  0.80740853     0.35540
H1670       H  0.28186307  0.85259426  0.83121358     0.40630
H1671       H  0.37329971  0.97787815  0.80499962     0.40250
H1672       H  0.39935083  0.95084674  0.79015322     0.35140
C1673       C  0.84616636  0.59925177  0.74346284    -0.26590
C1674       C  0.82344650  0.62495687  0.74307933    -0.14660
C1675       C  0.80098125  0.62498024  0.71703807     0.35970
C1676       C  0.80187743  0.60052209  0.69356561    -0.26040
C1677       C  0.82543479  0.57638548  0.69401186    -0.15280
C1678       C  0.84749745  0.57548953  0.71952597     0.37050
N1679       N  0.87133399  0.55030778  0.72127026    -0.89530
H1680       H  0.86494980  0.59812813  0.76114274     0.18170
H1681       H  0.78481349  0.60134363  0.67391261     0.18160
N1682       N  0.77819972  0.65070691  0.71302583    -0.88560
H1683       H  0.88333330  0.55086760  0.74331331     0.35540
H1684       H  0.88871932  0.55522601  0.70397026     0.40630
H1685       H  0.75523127  0.64061706  0.71170631     0.40250
H1686       H  0.78231655  0.66161240  0.69097699     0.35140
C1687       C  0.88328404  0.62601372  0.83645610    -0.26590
C1688       C  0.90819876  0.64847900  0.83542794    -0.14660
C1689       C  0.90886391  0.67133114  0.81066170     0.35970
C1690       C  0.88402537  0.67186203  0.78797055    -0.26040
C1691       C  0.85765634  0.65017300  0.78895134    -0.15280
C1692       C  0.85801397  0.62654193  0.81422825     0.37050
N1693       N  0.83333046  0.60266253  0.81865136    -0.89530
H1694       H  0.88292970  0.60817150  0.85541623     0.18170
H1695       H  0.88475470  0.69140465  0.77109636     0.18160
N1696       N  0.93492971  0.69397301  0.80837303    -0.88560
H1697       H  0.82141623  0.60804135  0.84003121     0.35540
H1698       H  0.81617850  0.60244472  0.80054701     0.40630
H1699       H  0.93203167  0.71100684  0.82668096     0.40250
H1700       H  0.93364301  0.70689215  0.78691992     0.35140
C1701       C  0.68282791  0.32342506  0.84062561    -0.26590
C1702       C  0.70716653  0.32318421  0.86403814    -0.14660
C1703       C  0.70598547  0.29721498  0.88631774     0.35970
C1704       C  0.68169024  0.27365910  0.88338348    -0.26040
C1705       C  0.65334305  0.27905510  0.86498787    -0.15280
C1706       C  0.65380994  0.30783480  0.84600500     0.37050
N1707       N  0.62732331  0.32987613  0.84447033    -0.89530
H1708       H  0.68220983  0.34280709  0.82353063     0.18170
H1709       H  0.68429228  0.25256433  0.89828556     0.18160
N1710       N  0.72634478  0.29575361  0.91389687    -0.88560
H1711       H  0.61666053  0.33126814  0.82187972     0.35540
H1712       H  0.61244668  0.32930672  0.86453481     0.40630
H1713       H  0.73664712  0.27272008  0.91468454     0.40250
H1714       H  0.71190289  0.29785588  0.93424319     0.35140
C1715       C  0.71496899  0.41515420  0.86111593    -0.26590
C1716       C  0.70548797  0.38365445  0.87017872    -0.14660
C1717       C  0.67729318  0.38239626  0.88997448     0.35970
C1718       C  0.65590193  0.40835601  0.89067822    -0.26040
C1719       C  0.66258851  0.43704361  0.87479721    -0.15280
C1720       C  0.69344277  0.44136367  0.86152302     0.37050
N1721       N  0.70397909  0.47176601  0.84873152    -0.89530
H1722       H  0.73916916  0.41932484  0.85277585     0.18170
H1723       H  0.63381098  0.40611917  0.90417969     0.18160
N1724       N  0.67188078  0.35794494  0.91350510    -0.88560
H1725       H  0.72368404  0.47937526  0.86236668     0.35540
H1726       H  0.68652293  0.48968482  0.85130335     0.40630
H1727       H  0.69327928  0.35215913  0.92523436     0.40250
H1728       H  0.66078776  0.33790615  0.90334709     0.35140
C1729       C  0.75460184  0.38170950  0.91582080    -0.26590
C1730       C  0.75516991  0.35548409  0.89323006    -0.14660
C1731       C  0.78119217  0.33292657  0.89793641     0.35970
C1732       C  0.80457592  0.33827912  0.92157444    -0.26040
C1733       C  0.80348289  0.36465469  0.94228656    -0.15280
C1734       C  0.77804281  0.38657062  0.93937629     0.37050
N1735       N  0.77450488  0.41353402  0.96072831    -0.89530
H1736       H  0.73568022  0.39940270  0.91656382     0.18170
H1737       H  0.82384145  0.32077367  0.92407360     0.18160
N1738       N  0.78453587  0.30352455  0.88028534    -0.88560
H1739       H  0.79437753  0.42866225  0.95818532     0.35540
H1740       H  0.77374488  0.40496734  0.98425592     0.40630
H1741       H  0.78576589  0.28422867  0.89631828     0.40250
H1742       H  0.80684101  0.30411736  0.86889131     0.35140
C1743       C  0.56485115  0.73787589  0.88046723    -0.26590
C1744       C  0.59370517  0.73263381  0.86348708    -0.14660
C1745       C  0.59421823  0.70534494  0.84233255     0.35970
C1746       C  0.56984195  0.68226858  0.84341594    -0.26040
C1747       C  0.54447624  0.68518138  0.86488613    -0.15280
C1748       C  0.54121219  0.71380653  0.88283096     0.37050
N1749       N  0.51372534  0.71868729  0.90298528    -0.89530
H1750       H  0.56073926  0.75990649  0.89339925     0.18170
H1751       H  0.57159909  0.66107318  0.82817005     0.18160
N1752       N  0.62018136  0.69971059  0.82062343    -0.88560
H1753       H  0.51397225  0.74182362  0.91311039     0.35540
H1754       H  0.51562389  0.70257961  0.92212715     0.40630
H1755       H  0.61077027  0.69838344  0.79739436     0.40250
H1756       H  0.63061518  0.67735997  0.82601095     0.35140
C1757       C  0.60950691  0.77179597  0.92823480    -0.26590
C1758       C  0.62934638  0.77384664  0.90066207    -0.14660
C1759       C  0.65424470  0.79764288  0.90204537     0.35970
C1760       C  0.65503880  0.82067035  0.92663541    -0.26040
C1761       C  0.63197006  0.82103186  0.95071433    -0.15280
C1762       C  0.61007336  0.79515498  0.95259632     0.37050
N1763       N  0.58847781  0.79106103  0.97909221    -0.89530
H1764       H  0.59245780  0.75289156  0.93195099     0.18170
H1765       H  0.67299225  0.83958054  0.92579350     0.18160
N1766       N  0.67778643  0.80022269  0.87729946    -0.88560
H1767       H  0.56517306  0.79544085  0.97076153     0.35540
H1768       H  0.59309944  0.80721582  0.99771129     0.40630
H1769       H  0.70053066  0.79803176  0.88777220     0.40250
H1770       H  0.67603064  0.82318471  0.86704898     0.35140
C1771       C  0.81094783  0.81105935  0.66145439    -0.26590
C1772       C  0.80464454  0.77777844  0.66044352    -0.14660
C1773       C  0.77161713  0.76899445  0.65896378     0.35970
C1774       C  0.74730606  0.79308852  0.66027007    -0.26040
C1775       C  0.75458557  0.82620448  0.66493362    -0.15280
C1776       C  0.78776053  0.83289209  0.67088863     0.37050
N1777       N  0.79920311  0.85751284  0.69236163    -0.89530
H1778       H  0.83467389  0.82090938  0.65912199     0.18170
H1779       H  0.72282118  0.78532663  0.65820705     0.18160
N1780       N  0.76249423  0.73577332  0.65640012    -0.88560
H1781       H  0.81075313  0.87582427  0.67980111     0.35540
H1782       H  0.78175359  0.86599993  0.70799055     0.40630
H1783       H  0.74898597  0.73296001  0.63541951     0.40250
H1784       H  0.74774854  0.73018041  0.67581408     0.35140
C1785       C  0.85692470  0.70794963  0.69576612    -0.26590
C1786       C  0.83291312  0.73191124  0.69328724    -0.14660
C1787       C  0.81166859  0.73514518  0.71968908     0.35970
C1788       C  0.81078318  0.71107170  0.74336374    -0.26040
C1789       C  0.83191348  0.68424242  0.74303358    -0.15280
C1790       C  0.85584084  0.68370586  0.71883920     0.37050
N1791       N  0.87886674  0.65797125  0.71696097    -0.89530
H1792       H  0.87515157  0.70609068  0.67743868     0.18170
H1793       H  0.79284483  0.71373371  0.76182598     0.18160
N1794       N  0.79213648  0.76329782  0.72407204    -0.88560
H1795       H  0.90188176  0.66797251  0.71802258     0.35540
H1796       H  0.87627225  0.64662955  0.69466956     0.40630
H1797       H  0.79892939  0.77438288  0.74559142     0.40250
H1798       H  0.76824090  0.75598032  0.72636048     0.35140
C1799       C  0.82093457  0.69698007  0.63594064    -0.26590
C1800       C  0.82866490  0.73002878  0.63186564    -0.14660
C1801       C  0.83046035  0.74120378  0.59965370     0.35970
C1802       C  0.83116659  0.71856171  0.57414435    -0.26040
C1803       C  0.82768591  0.68535358  0.57983948    -0.15280
C1804       C  0.82135955  0.67465885  0.61107088     0.37050
N1805       N  0.81525774  0.64133990  0.61883488    -0.89530
H1806       H  0.81431872  0.68749683  0.65883140     0.18170
H1807       H  0.83433502  0.72682383  0.54974955     0.18160
N1808       N  0.83342950  0.77510598  0.59297643    -0.88560
H1809       H  0.83369969  0.63351228  0.63402947     0.35540
H1810       H  0.81582361  0.62628548  0.59880742     0.40630
H1811       H  0.81110415  0.78575666  0.59732664     0.40250
H1812       H  0.83800254  0.77877155  0.56864450     0.35140
C1813       C  0.87185691  0.78986779  0.69156856    -0.26590
C1814       C  0.86629719  0.77058158  0.66391985    -0.14660
C1815       C  0.89102603  0.77054740  0.64038511     0.35970
C1816       C  0.91403428  0.79556664  0.64061258    -0.26040
C1817       C  0.91536493  0.81840576  0.66552215    -0.15280
C1818       C  0.89507824  0.81433137  0.69217541     0.37050
N1819       N  0.89656070  0.83623527  0.71897508    -0.89530
H1820       H  0.85509239  0.78877143  0.71129286     0.18170
H1821       H  0.93153743  0.79684166  0.62151038     0.18160
N1822       N  0.89413494  0.74484804  0.61741927    -0.88560
H1823       H  0.88044219  0.82941029  0.73686092     0.35540
H1824       H  0.88895194  0.85889244  0.71089810     0.40630
H1825       H  0.89954173  0.72372632  0.62996502     0.40250
H1826       H  0.91339435  0.74895630  0.60196662     0.35140
C1827       C  0.74760013  0.79458567  0.38166535    -0.26590
C1828       C  0.74940959  0.82014766  0.35969953    -0.14660
C1829       C  0.76924844  0.81505185  0.33254408     0.35970
C1830       C  0.78986542  0.78865724  0.33147391    -0.26040
C1831       C  0.79643039  0.76994444  0.35877535    -0.15280
C1832       C  0.77077495  0.76962206  0.38175133     0.37050
N1833       N  0.76521784  0.74269875  0.40246261    -0.89530
H1834       H  0.72842820  0.79367338  0.39897730     0.18170
H1835       H  0.80110587  0.78328268  0.30883154     0.18160
N1836       N  0.76995584  0.83748892  0.30652423    -0.88560
H1837       H  0.76267317  0.75130969  0.42589021     0.35540
H1838       H  0.74319290  0.73240139  0.39607309     0.40630
H1839       H  0.76398182  0.82512274  0.28544824     0.40250
H1840       H  0.79339410  0.84619369  0.30428080     0.35140
C1841       C  0.68665207  0.82774873  0.33077532    -0.26590
C1842       C  0.70942543  0.85281384  0.33255018    -0.14660
C1843       C  0.70862160  0.87623404  0.30787990     0.35970
C1844       C  0.68299407  0.87645767  0.28574576    -0.26040
C1845       C  0.65797635  0.85315930  0.28619346    -0.15280
C1846       C  0.66060304  0.82844140  0.31002934     0.37050
N1847       N  0.63684816  0.80402331  0.31541831    -0.89530
H1848       H  0.68704170  0.80881536  0.34867094     0.18170
H1849       H  0.68236315  0.89669108  0.26966930     0.18160
N1850       N  0.73377207  0.89938583  0.30410731    -0.88560
H1851       H  0.61726750  0.81397225  0.32744208     0.35540
H1852       H  0.62998944  0.79247233  0.29430817     0.40630
H1853       H  0.72356004  0.92248493  0.30477581     0.40250
H1854       H  0.74383482  0.89613286  0.28140216     0.35140
C1855       C  0.67612357  0.86902049  0.38809492    -0.26590
C1856       C  0.70729436  0.85556789  0.39285411    -0.14660
C1857       C  0.71615946  0.84943874  0.42515830     0.35970
C1858       C  0.69266391  0.85028466  0.44949839    -0.26040
C1859       C  0.66087835  0.85964100  0.44285789    -0.15280
C1860       C  0.65290713  0.87025029  0.41191975     0.37050
N1861       N  0.62132177  0.88155303  0.40320119    -0.89530
H1862       H  0.66892836  0.87900229  0.36535038     0.18170
H1863       H  0.69942719  0.84411299  0.47382718     0.18160
N1864       N  0.74890517  0.84317084  0.43364745    -0.88560
H1865       H  0.62319535  0.90594442  0.39707237     0.35540
H1866       H  0.60496949  0.88010632  0.42198765     0.40630
H1867       H  0.74996632  0.82117770  0.44585853     0.40250
H1868       H  0.75634396  0.86125868  0.44954116     0.35140
C1869       C  0.74363400  0.91266923  0.36878611    -0.26590
C1870       C  0.75546026  0.88071591  0.36790369    -0.14660
C1871       C  0.78896710  0.87661385  0.37531675     0.35970
C1872       C  0.80944585  0.90327320  0.37595069    -0.26040
C1873       C  0.79757801  0.93448591  0.37326513    -0.15280
C1874       C  0.76407362  0.93937511  0.37165301     0.37050
N1875       N  0.74976485  0.97079085  0.37362360    -0.89530
H1876       H  0.71808175  0.91706594  0.36661701     0.18170
H1877       H  0.83497429  0.89950345  0.37973970     0.18160
N1878       N  0.80255987  0.84627968  0.38472789    -0.88560
H1879       H  0.73942586  0.97553083  0.35128083     0.35540
H1880       H  0.76692454  0.98845606  0.37848298     0.40630
H1881       H  0.81176960  0.84862610  0.40795969     0.40250
H1882       H  0.82176843  0.84116511  0.36950603     0.35140
C1883       C  0.61291626  0.83351020  0.82153693    -0.26590
C1884       C  0.62540408  0.82803672  0.79072123    -0.14660
C1885       C  0.63536166  0.79547276  0.78448152     0.35970
C1886       C  0.63585116  0.77230512  0.80959288    -0.26040
C1887       C  0.62334855  0.77873864  0.84048952    -0.15280
C1888       C  0.60769018  0.80932311  0.84365415     0.37050
N1889       N  0.58374004  0.81693896  0.86709750    -0.89530
H1890       H  0.60494969  0.85655386  0.82961228     0.18170
H1891       H  0.64567518  0.74890379  0.80419907     0.18160
N1892       N  0.64482645  0.78542256  0.75293173    -0.88560
H1893       H  0.59241840  0.81897225  0.89032895     0.35540
H1894       H  0.56409587  0.80167807  0.86453678     0.40630
H1895       H  0.62415541  0.78525410  0.73868748     0.40250
H1896       H  0.65341835  0.76167654  0.75296156     0.35140
C1897       C  0.64860636  0.84088445  0.70983883    -0.26590
C1898       C  0.65580327  0.85103356  0.74152457    -0.14660
C1899       C  0.68942007  0.84981992  0.74915657     0.35970
C1900       C  0.71246942  0.84868076  0.72398429    -0.26040
C1901       C  0.70345187  0.84727102  0.69119378    -0.15280
C1902       C  0.67107369  0.83721716  0.68592338     0.37050
N1903       N  0.65992995  0.81899690  0.65869398    -0.89530
H1904       H  0.62499650  0.83257436  0.70308717     0.18170
H1905       H  0.73751942  0.84985954  0.73039373     0.18160
N1906       N  0.70131900  0.84816554  0.78152229    -0.88560
H1907       H  0.64677839  0.83347685  0.64296763     0.35540
H1908       H  0.67737851  0.80502144  0.64767155     0.40630
H1909       H  0.68287478  0.84937723  0.79825522     0.40250
H1910       H  0.71637667  0.86793964  0.78560590     0.35140
C1911       C  0.57313873  0.83306743  0.74288517    -0.26590
C1912       C  0.59576297  0.85846458  0.74430625    -0.14660
C1913       C  0.59216916  0.88425876  0.72194988     0.35970
C1914       C  0.56825565  0.88321371  0.69850309    -0.26040
C1915       C  0.54759612  0.85682069  0.69564892    -0.15280
C1916       C  0.54953309  0.83172708  0.71853560     0.37050
N1917       N  0.52745562  0.80510619  0.71728254    -0.89530
H1918       H  0.57453700  0.81333779  0.75970490     0.18170
H1919       H  0.56674316  0.90292139  0.68152110     0.18160
N1920       N  0.61361551  0.91129017  0.72234079    -0.88560
H1921       H  0.53049654  0.79014852  0.73720593     0.35540
H1922       H  0.53342978  0.79103165  0.69733091     0.40630
H1923       H  0.60001606  0.93226775  0.72580359     0.40250
H1924       H  0.62457241  0.91286535  0.69997991     0.35140
C1925       C  0.65583261  0.90833114  0.78814707    -0.26590
C1926       C  0.62718190  0.89041393  0.78429719    -0.14660
C1927       C  0.59913342  0.90436928  0.79946643     0.35970
C1928       C  0.60252911  0.92860987  0.82247131    -0.26040
C1929       C  0.63233934  0.94187180  0.83034729    -0.15280
C1930       C  0.65906580  0.93273641  0.81149675     0.37050
N1931       N  0.68978911  0.94779406  0.81512044    -0.89530
H1932       H  0.67633987  0.90372757  0.77335431     0.18170
H1933       H  0.58111145  0.93666586  0.83487129     0.18160
N1934       N  0.56668592  0.89369151  0.79425481    -0.88560
H1935       H  0.69846765  0.94318178  0.83817579     0.35540
H1936       H  0.68700928  0.97270346  0.81207490     0.40630
H1937       H  0.56412444  0.86891693  0.79770658     0.40250
H1938       H  0.55866798  0.90059025  0.77159682     0.35140
C1939       C  0.77285023  0.38123832  0.78528162    -0.26590
C1940       C  0.79780472  0.35807803  0.78515591    -0.14660
C1941       C  0.79242313  0.32961967  0.80373835     0.35970
C1942       C  0.76479916  0.32735505  0.82265023    -0.26040
C1943       C  0.74664610  0.35461408  0.83099598    -0.15280
C1944       C  0.74637378  0.37875913  0.80619220     0.37050
N1945       N  0.71814667  0.39621598  0.79632964    -0.89530
H1946       H  0.77292749  0.40102605  0.76845269     0.18170
H1947       H  0.75813562  0.30408870  0.83199747     0.18160
N1948       N  0.81427989  0.30257956  0.80248087    -0.88560
H1949       H  0.72225934  0.42102939  0.79847099     0.35540
H1950       H  0.69758719  0.38977291  0.80875413     0.40630
H1951       H  0.83563108  0.30904431  0.81391323     0.40250
H1952       H  0.80519903  0.28276301  0.81495270     0.35140
C1953       C  0.80485099  0.31222830  0.73594644    -0.26590
C1954       C  0.83298670  0.33097808  0.74226680    -0.14660
C1955       C  0.85875577  0.32410214  0.72041400     0.35970
C1956       C  0.85618773  0.29954957  0.69734446    -0.26040
C1957       C  0.82918524  0.27940288  0.69364681    -0.15280
C1958       C  0.80276818  0.28657277  0.71433345     0.37050
N1959       N  0.77222694  0.27047115  0.71421579    -0.89530
H1960       H  0.78196493  0.31845714  0.74623320     0.18170
H1961       H  0.87609767  0.29668991  0.68090065     0.18160
N1962       N  0.88712595  0.34284757  0.71750164    -0.88560
H1963       H  0.77314083  0.24872063  0.72663924     0.35540
H1964       H  0.76126945  0.26890401  0.69186318     0.40630
H1965       H  0.90268747  0.33799118  0.73648441     0.40250
H1966       H  0.88143317  0.36699359  0.71312233     0.35140
C1967       C  0.81224248  0.38737475  0.71133333    -0.26590
C1968       C  0.82662021  0.39199337  0.74192183    -0.14660
C1969       C  0.83761321  0.42381902  0.74905441     0.35970
C1970       C  0.83895461  0.44723376  0.72447171    -0.26040
C1971       C  0.82784206  0.44053028  0.69337984    -0.15280
C1972       C  0.81413374  0.41014698  0.68686155     0.37050
N1973       N  0.80262970  0.40089233  0.65554236    -0.89530
H1974       H  0.80022590  0.36515791  0.70522146     0.18170
H1975       H  0.84790415  0.47122911  0.72981362     0.18160
N1976       N  0.84585254  0.43299349  0.78126320    -0.88560
H1977       H  0.81618528  0.38096068  0.64807965     0.35540
H1978       H  0.80657923  0.41869359  0.63841674     0.40630
H1979       H  0.82483745  0.43191403  0.79482427     0.40250
H1980       H  0.85362062  0.45697725  0.78221611     0.35140
C1981       C  0.88953406  0.37452516  0.78185635    -0.26590
C1982       C  0.85773664  0.36725034  0.79115205    -0.14660
C1983       C  0.85306837  0.36962941  0.82535930     0.35970
C1984       C  0.87900639  0.36627145  0.84664374    -0.26040
C1985       C  0.91050051  0.36683853  0.83587262    -0.15280
C1986       C  0.91592879  0.37317180  0.80312454     0.37050
N1987       N  0.94747330  0.37933658  0.79065083    -0.89530
H1988       H  0.89404236  0.38445527  0.75866607     0.18170
H1989       H  0.87444113  0.36584959  0.87222302     0.18160
N1990       N  0.82340490  0.38023840  0.83909993    -0.88560
H1991       H  0.95270797  0.36105980  0.77411190     0.35540
H1992       H  0.96503390  0.37798136  0.80849637     0.40630
H1993       H  0.82728312  0.40236960  0.85061809     0.40250
H1994       H  0.81686749  0.36361325  0.85655220     0.35140
C1995       C  0.78273073  0.67346930  0.84430485    -0.26590
C1996       C  0.75322672  0.65655646  0.84138202    -0.14660
C1997       C  0.74406286  0.64925895  0.80922663     0.35970
C1998       C  0.76819970  0.64616117  0.78584773    -0.26040
C1999       C  0.79873148  0.66069495  0.78972878    -0.15280
C2000       C  0.80282603  0.67908136  0.81843134     0.37050
N2001       N  0.82676667  0.70369999  0.82271783    -0.89530
H2002       H  0.78890407  0.68606947  0.86620504     0.18170
H2003       H  0.76200030  0.63263746  0.76487051     0.18160
N2004       N  0.71114398  0.64648728  0.79891730    -0.88560
H2005       H  0.84436060  0.69518183  0.83851393     0.35540
H2006       H  0.83728088  0.71069589  0.80130738     0.40630
H2007       H  0.69510906  0.64991583  0.81774584     0.40250
H2008       H  0.70733405  0.62359123  0.78900275     0.35140
C2009       C  0.67753049  0.67830205  0.89001717    -0.26590
C2010       C  0.70575288  0.68146006  0.87202227    -0.14660
C2011       C  0.70806186  0.71120697  0.85451139     0.35970
C2012       C  0.68233559  0.73349351  0.85379457    -0.26040
C2013       C  0.65365830  0.72905038  0.87103558    -0.15280
C2014       C  0.65277731  0.70084259  0.89090713     0.37050
N2015       N  0.62708006  0.69235798  0.91219471    -0.89530
H2016       H  0.67292819  0.65784245  0.90433785     0.18170
H2017       H  0.68597353  0.75502345  0.83988186     0.18160
N2018       N  0.73652546  0.72035778  0.83786452    -0.88560
H2019       H  0.61553420  0.67198449  0.90290769     0.35540
H2020       H  0.60992792  0.70998012  0.91491741     0.40630
H2021       H  0.74479468  0.74219152  0.84745708     0.40250
H2022       H  0.73071788  0.72403649  0.81374438     0.35140
C2023       C  0.71177020  0.59661017  0.84924787    -0.26590
C2024       C  0.71375923  0.61872353  0.87501934    -0.14660
C2025       C  0.69861454  0.60734126  0.90389019     0.35970
C2026       C  0.67360468  0.58489285  0.90196280    -0.26040
C2027       C  0.66562211  0.56964047  0.87306840    -0.15280
C2028       C  0.68668886  0.57379431  0.84691113     0.37050
N2029       N  0.68335898  0.55439054  0.81845971    -0.89530
H2030       H  0.72949511  0.59663128  0.83066180     0.18170
H2031       H  0.66059260  0.57908489  0.92363111     0.18160
N2032       N  0.70783452  0.61711769  0.93571528    -0.88560
H2033       H  0.70242938  0.55851212  0.80277794     0.35540
H2034       H  0.66274692  0.56230455  0.80645164     0.40630
H2035       H  0.70664075  0.64201497  0.93905002     0.40250
H2036       H  0.73101217  0.60882812  0.94056928     0.35140
C2037       C  0.77772757  0.62714827  0.90199494    -0.26590
C2038       C  0.75539705  0.65303230  0.90097034    -0.14660
C2039       C  0.75843841  0.67765932  0.92458859     0.35970
C2040       C  0.78245321  0.67521039  0.94831382    -0.26040
C2041       C  0.80377427  0.64885111  0.94938529    -0.15280
C2042       C  0.80128807  0.62453083  0.92584915     0.37050
N2043       N  0.82343085  0.59781556  0.92534077    -0.89530
H2044       H  0.77663449  0.60856296  0.88368258     0.18170
H2045       H  0.78442275  0.69422696  0.96612257     0.18160
N2046       N  0.73801990  0.70548350  0.92460141    -0.88560
H2047       H  0.82030232  0.58390777  0.90460323     0.35540
H2048       H  0.81759231  0.58271892  0.94446816     0.40630
H2049       H  0.75241322  0.72602864  0.92254859     0.40250
H2050       H  0.72617163  0.70656658  0.94662644     0.35140
C2051       C  0.30849945  0.80260811  0.78350014    -0.26590
C2052       C  0.33424008  0.82487067  0.78251506    -0.14660
C2053       C  0.35972297  0.81923025  0.80507634     0.35970
C2054       C  0.35780336  0.79340870  0.82654371    -0.26040
C2055       C  0.33099662  0.77259075  0.82861789    -0.15280
C2056       C  0.30809311  0.77530726  0.80305932     0.37050
N2057       N  0.28659663  0.75033032  0.79237140    -0.89530
H2058       H  0.28779850  0.80527330  0.76823537     0.18170
H2059       H  0.37674399  0.79156237  0.84431906     0.18160
N2060       N  0.38763764  0.83942674  0.80853334    -0.88560
H2061       H  0.26281695  0.75827363  0.79383909     0.35540
H2062       H  0.28924524  0.72860067  0.80401675     0.40630
H2063       H  0.38888948  0.85740939  0.79150133     0.40250
H2064       H  0.40791304  0.82497772  0.80472263     0.35140
C2065       C  0.30508451  0.70085168  0.88326318    -0.26590
C2066       C  0.30006328  0.72978448  0.86598612    -0.14660
C2067       C  0.26745384  0.73615095  0.85745555     0.35970
C2068       C  0.24663612  0.70963365  0.85302242    -0.26040
C2069       C  0.25369141  0.67949626  0.86732837    -0.15280
C2070       C  0.28078671  0.67855757  0.88782553     0.37050
N2071       N  0.28511857  0.65324556  0.91089822    -0.89530
H2072       H  0.32810691  0.69460127  0.89341927     0.18170
H2073       H  0.22357780  0.71365795  0.84166826     0.18160
N2074       N  0.25482755  0.76797579  0.85209574    -0.88560
H2075       H  0.28700691  0.66402394  0.93351349     0.35540
H2076       H  0.30686046  0.64144719  0.90634215     0.40630
H2077       H  0.27186647  0.78547563  0.85721132     0.40250
H2078       H  0.23628242  0.77165190  0.86853752     0.35140
C2079       C  0.38615192  0.73538891  0.88176279    -0.26590
C2080       C  0.36072623  0.73120245  0.85957073    -0.14660
C2081       C  0.36485346  0.70569924  0.83651832     0.35970
C2082       C  0.39042179  0.68421397  0.83881093    -0.26040
C2083       C  0.41275367  0.68597663  0.86354423    -0.15280
C2084       C  0.41136193  0.71281092  0.88479743     0.37050
N2085       N  0.43497788  0.71853659  0.90936212    -0.89530
H2086       H  0.38671164  0.75619019  0.89741079     0.18170
H2087       H  0.39191062  0.66469602  0.82145356     0.18160
N2088       N  0.34337591  0.69960529  0.81055881    -0.88560
H2089       H  0.44584787  0.74072516  0.90450956     0.35540
H2090       H  0.45330612  0.70147034  0.90877740     0.40630
H2091       H  0.34240730  0.71961164  0.79552249     0.40250
H2092       H  0.32119226  0.69253669  0.81942087     0.35140
C2093       C  0.32116841  0.81073211  0.88499553    -0.26590
C2094       C  0.32809429  0.77741065  0.89025313    -0.14660
C2095       C  0.33155543  0.76818062  0.92320688     0.35970
C2096       C  0.33040298  0.79143352  0.94782122    -0.26040
C2097       C  0.32498261  0.82398885  0.94136655    -0.15280
C2098       C  0.32017521  0.83379638  0.90952538     0.37050
N2099       N  0.31440971  0.86694755  0.90085491    -0.89530
H2100       H  0.31569756  0.81986423  0.86149362     0.18170
H2101       H  0.33385090  0.78383255  0.97244635     0.18160
N2102       N  0.33702954  0.73546236  0.93251943    -0.88560
H2103       H  0.33372024  0.87444522  0.88678766     0.35540
H2104       H  0.31392875  0.88226122  0.92073345     0.40630
H2105       H  0.31839124  0.72849208  0.94772423     0.40250
H2106       H  0.35847850  0.73431521  0.94558117     0.35140
C2107       C  0.78069721  0.62793296  0.23100072    -0.26590
C2108       C  0.80380702  0.65270194  0.23262830    -0.14660
C2109       C  0.79959107  0.67902709  0.21087966     0.35970
C2110       C  0.77485708  0.67860715  0.18840710    -0.26040
C2111       C  0.75099002  0.65463184  0.18706530    -0.15280
C2112       C  0.75540463  0.62798494  0.20858574     0.37050
N2113       N  0.73722426  0.59878696  0.20605228    -0.89530
H2114       H  0.78347264  0.60629004  0.24507308     0.18170
H2115       H  0.77528249  0.69719115  0.17018885     0.18160
N2116       N  0.82118688  0.70575128  0.20856769    -0.88560
H2117       H  0.72656919  0.59424000  0.22823921     0.35540
H2118       H  0.75289443  0.57972347  0.20080768     0.40630
H2119       H  0.84387199  0.69769044  0.20189873     0.40250
H2120       H  0.82155044  0.71901760  0.22981850     0.35140
C2121       C  0.77368997  0.62663542  0.12783674    -0.26590
C2122       C  0.75247202  0.65350986  0.12843122    -0.14660
C2123       C  0.75809152  0.67856219  0.10569815     0.35970
C2124       C  0.78342375  0.67575629  0.08385676    -0.26040
C2125       C  0.80387258  0.64890941  0.08362159    -0.15280
C2126       C  0.79880340  0.62388160  0.10569216     0.37050
N2127       N  0.81960985  0.59610985  0.10620000    -0.89530
H2128       H  0.77051943  0.60745202  0.14509915     0.18170
H2129       H  0.78715600  0.69509836  0.06682757     0.18160
N2130       N  0.73941899  0.70759953  0.10482751    -0.88560
H2131       H  0.81232850  0.57970923  0.12371776     0.35540
H2132       H  0.84252834  0.60399541  0.11284918     0.40630
H2133       H  0.72921077  0.70976520  0.08200583     0.40250
H2134       H  0.75474752  0.72723309  0.10859415     0.35140
C2135       C  0.68169885  0.62490018  0.18227359    -0.26590
C2136       C  0.70423489  0.62578409  0.15686553    -0.14660
C2137       C  0.69994979  0.60279359  0.13136539     0.35970
C2138       C  0.67649540  0.57872800  0.13411855    -0.26040
C2139       C  0.65548959  0.57745763  0.16010552    -0.15280
C2140       C  0.65805942  0.60085745  0.18454927     0.37050
N2141       N  0.63617172  0.60086542  0.21111848    -0.89530
H2142       H  0.68318407  0.64306365  0.20098682     0.18170
H2143       H  0.67388378  0.56118039  0.11495765     0.18160
N2144       N  0.71704842  0.60479576  0.10154422    -0.88560
H2145       H  0.63992882  0.62108564  0.22572412     0.35540
H2146       H  0.64172319  0.58082632  0.22527621     0.40630
H2147       H  0.70858128  0.62495717  0.08911614     0.40250
H2148       H  0.71245980  0.58484025  0.08681363     0.35140
C2149       C  0.30897828  0.69617788  0.16256933    -0.26590
C2150       C  0.30079353  0.72920995  0.16264913    -0.14660
C2151       C  0.26701112  0.73604283  0.16133131     0.35970
C2152       C  0.24443726  0.71017214  0.16049746    -0.26040
C2153       C  0.25415269  0.67738809  0.16172926    -0.15280
C2154       C  0.28703748  0.67266087  0.16969909     0.37050
N2155       N  0.29797874  0.64923721  0.19261237    -0.89530
H2156       H  0.33302492  0.68721609  0.15989903     0.18170
H2157       H  0.21902758  0.71570462  0.15956937     0.18160
N2158       N  0.25542629  0.76863497  0.15869159    -0.88560
H2159       H  0.30963202  0.63005622  0.18124679     0.35540
H2160       H  0.27961497  0.64188829  0.20787474     0.40630
H2161       H  0.25801343  0.77992678  0.18089784     0.40250
H2162       H  0.23081222  0.76893091  0.15369842     0.35140
C2163       C  0.40903536  0.71141400  0.14164965    -0.26590
C2164       C  0.40969788  0.68870422  0.16652329    -0.14660
C2165       C  0.39034185  0.69420589  0.19365729     0.35970
C2166       C  0.36796182  0.71958793  0.19318902    -0.26040
C2167       C  0.36209326  0.73794156  0.16503418    -0.15280
C2168       C  0.38665439  0.73692711  0.14139513     0.37050
N2169       N  0.39108616  0.76249283  0.11883188    -0.89530
H2170       H  0.42641369  0.70971297  0.12244151     0.18170
H2171       H  0.35158266  0.72169043  0.21318453     0.18160
N2172       N  0.39177100  0.67284630  0.22073906    -0.88560
H2173       H  0.39239610  0.75240131  0.09586615     0.35540
H2174       H  0.41338878  0.77309766  0.12349061     0.40630
H2175       H  0.38319998  0.65033217  0.21319783     0.40250
H2176       H  0.37634801  0.68070260  0.23889735     0.35140
C2177       C  0.35467523  0.82138340  0.22301538    -0.26590
C2178       C  0.32963802  0.82275664  0.24573984    -0.14660
C2179       C  0.30701642  0.79676973  0.24496905     0.35970
C2180       C  0.30754476  0.77444128  0.21907074    -0.26040
C2181       C  0.32893614  0.77773898  0.19311922    -0.15280
C2182       C  0.35350531  0.80116007  0.19636867     0.37050
N2183       N  0.37720512  0.80533138  0.17195940    -0.89530
H2184       H  0.37345984  0.83947014  0.22352686     0.18170
H2185       H  0.29079126  0.75456235  0.21927394     0.18160
N2186       N  0.28386280  0.79225220  0.26995885    -0.88560
H2187       H  0.39987246  0.80193732  0.18228482     0.35540
H2188       H  0.37585562  0.82906672  0.16360181     0.40630
H2189       H  0.29598310  0.78581691  0.29088538     0.40250
H2190       H  0.26837574  0.77312090  0.26460986     0.35140
C2191       C  0.32805033  0.78668222  0.07468812    -0.26590
C2192       C  0.31728437  0.81848615  0.07893638    -0.14660
C2193       C  0.30331702  0.82721079  0.10812520     0.35970
C2194       C  0.30847211  0.80754350  0.13489680    -0.26040
C2195       C  0.32263527  0.77640233  0.13213940    -0.15280
C2196       C  0.32720706  0.76453640  0.10040169     0.37050
N2197       N  0.33263721  0.73072225  0.09454626    -0.89530
H2198       H  0.33593317  0.77888999  0.05117952     0.18170
H2199       H  0.29969984  0.81625751  0.15766567     0.18160
N2200       N  0.28270188  0.85508140  0.10998614    -0.88560
H2201       H  0.33783746  0.72668815  0.07036864     0.35540
H2202       H  0.31104082  0.71875209  0.09887091     0.40630
H2203       H  0.29582026  0.87560827  0.10392178     0.40250
H2204       H  0.27381650  0.85818219  0.13319598     0.35140
C2205       C  0.10141822  0.32588787  0.72033613    -0.26590
C2206       C  0.12518203  0.32397444  0.74434119    -0.14660
C2207       C  0.14329750  0.29487646  0.74549405     0.35970
C2208       C  0.13944785  0.27132503  0.72132870    -0.26040
C2209       C  0.11989284  0.27626340  0.69389993    -0.15280
C2210       C  0.09785421  0.30256936  0.69637922     0.37050
N2211       N  0.06995900  0.30496457  0.67653846    -0.89530
H2212       H  0.08480402  0.34608478  0.72032661     0.18170
H2213       H  0.15200415  0.24880645  0.72488394     0.18160
N2214       N  0.16515592  0.28809497  0.77113192    -0.88560
H2215       H  0.07006490  0.32760021  0.66545402     0.35540
H2216       H  0.04965835  0.30389712  0.69117920     0.40630
H2217       H  0.18793020  0.28418311  0.76135806     0.40250
H2218       H  0.15783880  0.26682096  0.78236563     0.35140
C2219       C  0.15184124  0.38176948  0.71621328    -0.26590
C2220       C  0.13064814  0.38400434  0.74272313    -0.14660
C2221       C  0.10746842  0.40985506  0.74076134     0.35970
C2222       C  0.11100237  0.43445679  0.71824905    -0.26040
C2223       C  0.13390268  0.43283909  0.69413501    -0.15280
C2224       C  0.15398439  0.40541293  0.69238435     0.37050
N2225       N  0.17483668  0.39900908  0.66570713    -0.89530
H2226       H  0.16565159  0.35990334  0.71247291     0.18170
H2227       H  0.09393482  0.45429951  0.71849087     0.18160
N2228       N  0.07791273  0.41012466  0.75816273    -0.88560
H2229       H  0.19849837  0.40181002  0.67366036     0.35540
H2230       H  0.17104540  0.41481007  0.64668752     0.40630
H2231       H  0.05890367  0.40855404  0.74179050     0.40250
H2232       H  0.07585799  0.43219334  0.77026933     0.35140
C2233       C  0.15356911  0.33849799  0.82110534    -0.26590
C2234       C  0.15930578  0.35055461  0.78999735    -0.14660
C2235       C  0.19175038  0.36050036  0.78476062     0.35970
C2236       C  0.21460004  0.35926857  0.80999759    -0.26040
C2237       C  0.20641214  0.35193838  0.84203107    -0.15280
C2238       C  0.17272040  0.34840789  0.84664117     0.37050
N2239       N  0.15665335  0.36139235  0.87432825    -0.89530
H2240       H  0.13085425  0.32761099  0.82723116     0.18170
H2241       H  0.23742790  0.36962607  0.80470793     0.18160
N2242       N  0.20283361  0.37151631  0.75448660    -0.88560
H2243       H  0.16027539  0.38637438  0.87444455     0.35540
H2244       H  0.13184022  0.35768613  0.87317665     0.40630
H2245       H  0.22158754  0.35645092  0.74703417     0.40250
H2246       H  0.21187115  0.39490901  0.75732211     0.35140
C2247       C  0.07211621  0.38259319  0.83597398    -0.26590
C2248       C  0.04773893  0.35946384  0.83486273    -0.14660
C2249       C  0.04857393  0.33561475  0.81072312     0.35970
C2250       C  0.07389366  0.33484589  0.78895296    -0.26040
C2251       C  0.09899865  0.35800415  0.78931119    -0.15280
C2252       C  0.09751324  0.38247408  0.81402960     0.37050
N2253       N  0.12147884  0.40726090  0.81826549    -0.89530
H2254       H  0.07185580  0.40087140  0.85464313     0.18170
H2255       H  0.07370432  0.31469845  0.77256552     0.18160
N2256       N  0.02388246  0.31176172  0.80731773    -0.88560
H2257       H  0.11006237  0.42972706  0.81688152     0.35540
H2258       H  0.13864871  0.40726880  0.80026786     0.40630
H2259       H  0.00168224  0.32346703  0.80546842     0.40250
H2260       H  0.02399661  0.29684970  0.82744990     0.35140
C2261       C  0.60584132  0.18376663  0.80604144    -0.26590
C2262       C  0.63250112  0.18291217  0.78543047    -0.14660
C2263       C  0.65794408  0.20535255  0.79248619     0.35970
C2264       C  0.65375129  0.22894131  0.81621600    -0.26040
C2265       C  0.62609041  0.23057597  0.83547952    -0.15280
C2266       C  0.60163487  0.20702775  0.82964384     0.37050
N2267       N  0.57255576  0.20469376  0.84791404    -0.89530
H2268       H  0.58695066  0.16606771  0.80322047     0.18170
H2269       H  0.67387037  0.24476571  0.82073799     0.18160
N2270       N  0.68988597  0.20345195  0.77984335    -0.88560
H2271       H  0.55740257  0.22410555  0.84287824     0.35540
H2272       H  0.57744192  0.20338314  0.87238568     0.40630
H2273       H  0.69175837  0.21433942  0.75752918     0.40250
H2274       H  0.69952699  0.18026125  0.78087008     0.35140
C2275       C  0.65985893  0.12053107  0.80547004    -0.26590
C2276       C  0.63326944  0.12383362  0.78443297    -0.14660
C2277       C  0.60631450  0.10333935  0.79069451     0.35970
C2278       C  0.60801766  0.07983039  0.81482553    -0.26040
C2279       C  0.63511685  0.07631419  0.83442398    -0.15280
C2280       C  0.66149935  0.09692448  0.82951492     0.37050
N2281       N  0.68951746  0.09482771  0.84964650    -0.89530
H2282       H  0.67981633  0.13686178  0.80331025     0.18170
H2283       H  0.58724825  0.06463313  0.81877263     0.18160
N2284       N  0.57598964  0.10741577  0.77492391    -0.88560
H2285       H  0.70542750  0.11368261  0.84481445     0.35540
H2286       H  0.70163794  0.07357347  0.84347803     0.40630
H2287       H  0.55858390  0.11261865  0.79220290     0.40250
H2288       H  0.56986245  0.08556568  0.76385918     0.35140
C2289       C  0.60329511  0.12597184  0.71595963    -0.26590
C2290       C  0.60355119  0.15277620  0.73738451    -0.14660
C2291       C  0.57870157  0.17656947  0.73263693     0.35970
C2292       C  0.55505457  0.17149281  0.70936870    -0.26040
C2293       C  0.55488257  0.14454193  0.68904070    -0.15280
C2294       C  0.58021635  0.12189396  0.69169848     0.37050
N2295       N  0.58439346  0.09520885  0.66987337    -0.89530
H2296       H  0.62198811  0.10781141  0.71787186     0.18170
H2297       H  0.53624521  0.18952105  0.70709212     0.18160
N2298       N  0.57622701  0.20695025  0.74905948    -0.88560
H2299       H  0.60727936  0.09728053  0.65984429     0.35540
H2300       H  0.56878529  0.09657375  0.65041390     0.40630
H2301       H  0.59777201  0.21945723  0.75124643     0.40250
H2302       H  0.56277818  0.20498988  0.76999956     0.35140
C2303       C  0.68113396  0.17778879  0.33613594    -0.26590
C2304       C  0.70549033  0.15409199  0.33551275    -0.14660
C2305       C  0.70443647  0.13213267  0.30895112     0.35970
C2306       C  0.67699385  0.13063950  0.28938878    -0.26040
C2307       C  0.65166836  0.15333311  0.29108847    -0.15280
C2308       C  0.65451737  0.17734008  0.31580156     0.37050
N2309       N  0.63054033  0.20133469  0.32238167    -0.89530
H2310       H  0.68120691  0.19587282  0.35491244     0.18170
H2311       H  0.67660447  0.11093930  0.27256616     0.18160
N2312       N  0.73125281  0.11258192  0.29935855    -0.88560
H2313       H  0.61073370  0.19064311  0.33319867     0.35540
H2314       H  0.62412959  0.21392340  0.30178809     0.40630
H2315       H  0.73775177  0.11931229  0.27613591     0.40250
H2316       H  0.72366057  0.08856584  0.29754523     0.35140
C2317       C  0.67885325  0.12975455  0.39291387    -0.26590
C2318       C  0.70477855  0.15187561  0.39601258    -0.14660
C2319       C  0.70720572  0.16826771  0.42632242     0.35970
C2320       C  0.68236881  0.16557781  0.44879634    -0.26040
C2321       C  0.65591664  0.14561649  0.44362904    -0.15280
C2322       C  0.65421341  0.12721484  0.41530290     0.37050
N2323       N  0.62734606  0.10688551  0.40731355    -0.89530
H2324       H  0.67626904  0.11511454  0.37158742     0.18170
H2325       H  0.68431133  0.17875362  0.47123594     0.18160
N2326       N  0.73472986  0.18643495  0.43616588    -0.88560
H2327       H  0.61752636  0.11588041  0.38606861     0.35540
H2328       H  0.60894700  0.10848732  0.42406933     0.40630
H2329       H  0.74355422  0.17625574  0.45734698     0.40250
H2330       H  0.72717959  0.20977666  0.44225998     0.35140
C2331       C  0.74270788  0.21424814  0.37755802    -0.26590
C2332       C  0.74902260  0.18488590  0.36144007    -0.14660
C2333       C  0.77381991  0.18662270  0.33791541     0.35970
C2334       C  0.79489821  0.21255889  0.33769954    -0.26040
C2335       C  0.79536945  0.23530653  0.36281538    -0.15280
C2336       C  0.76619067  0.23883362  0.38003432     0.37050
N2337       N  0.75986108  0.26704425  0.39914200    -0.89530
H2338       H  0.71969784  0.21802990  0.38874687     0.18170
H2339       H  0.81428194  0.21213860  0.32039691     0.18160
N2340       N  0.77841423  0.16341775  0.31303179    -0.88560
H2341       H  0.73757621  0.26525248  0.41044032     0.35540
H2342       H  0.75837190  0.28683174  0.38373682     0.40630
H2343       H  0.75898691  0.16501336  0.29737449     0.40250
H2344       H  0.78183656  0.14035635  0.32232910     0.35140
C2345       C  0.74219759  0.09321968  0.36017973    -0.26590
C2346       C  0.75056139  0.12405563  0.37154645    -0.14660
C2347       C  0.77809455  0.12505459  0.39195831     0.35970
C2348       C  0.79939273  0.09882772  0.39318316    -0.26040
C2349       C  0.79431575  0.07136117  0.37452124    -0.15280
C2350       C  0.76486046  0.06832924  0.35785227     0.37050
N2351       N  0.75693322  0.04112537  0.33793981    -0.89530
H2352       H  0.71837172  0.08853063  0.35123240     0.18170
H2353       H  0.82058980  0.10041954  0.40826614     0.18160
N2354       N  0.78338154  0.15104370  0.41381477    -0.88560
H2355       H  0.73631788  0.03051052  0.34737441     0.35540
H2356       H  0.77503099  0.02376007  0.33761885     0.40630
H2357       H  0.80723194  0.15818646  0.41228355     0.40250
H2358       H  0.78118862  0.14140378  0.43682737     0.35140
C2359       C  0.19136436  0.81834340  0.68822742    -0.26590
C2360       C  0.20824143  0.82450703  0.65955036    -0.14660
C2361       C  0.19842159  0.80633992  0.63195484     0.35970
C2362       C  0.17512058  0.78212973  0.63481873    -0.26040
C2363       C  0.15819806  0.77653859  0.66356931    -0.15280
C2364       C  0.16563713  0.79696857  0.68983744     0.37050
N2365       N  0.14647305  0.79693685  0.71828217    -0.89530
H2366       H  0.19582029  0.83282844  0.70930711     0.18170
H2367       H  0.16801964  0.77010875  0.61290120     0.18160
N2368       N  0.20766518  0.81402291  0.59987710    -0.88560
H2369       H  0.13664013  0.82003561  0.72111577     0.35540
H2370       H  0.16134197  0.79260036  0.73803428     0.40630
H2371       H  0.23155592  0.80789400  0.59586801     0.40250
H2372       H  0.20295557  0.83833282  0.59524973     0.35140
C2373       C  0.05474455  0.80761428  0.69013411    -0.26590
C2374       C  0.05078185  0.82661605  0.66277576    -0.14660
C2375       C  0.07213431  0.82260644  0.63708625     0.35970
C2376       C  0.09681663  0.79973345  0.63925544    -0.26040
C2377       C  0.09991478  0.77860761  0.66569063    -0.15280
C2378       C  0.07892307  0.78413405  0.69225539     0.37050
N2379       N  0.08246220  0.76775124  0.72223140    -0.89530
H2380       H  0.03888562  0.81102174  0.71041860     0.18170
H2381       H  0.11286625  0.79729314  0.61903085     0.18160
N2382       N  0.06889301  0.84150883  0.60855947    -0.88560
H2383       H  0.06094421  0.75580359  0.72716734     0.35540
H2384       H  0.08610058  0.78496088  0.74027303     0.40630
H2385       H  0.06518095  0.82568469  0.58932584     0.40250
H2386       H  0.09056212  0.85349988  0.60460574     0.35140
C2387       C  0.15416624  0.71132223  0.62922287    -0.26590
C2388       C  0.12658612  0.73072668  0.63449102    -0.14660
C2389       C  0.09895787  0.72365134  0.61476297     0.35970
C2390       C  0.10090238  0.69991266  0.59086778    -0.26040
C2391       C  0.12896329  0.68223413  0.58511305    -0.15280
C2392       C  0.15598021  0.68818548  0.60481259     0.37050
N2393       N  0.18550093  0.67070522  0.60138593    -0.89530
H2394       H  0.17506251  0.71437626  0.64445007     0.18170
H2395       H  0.07970786  0.69527430  0.57642168     0.18160
N2396       N  0.06783548  0.73813703  0.61814419    -0.88560
H2397       H  0.19507633  0.67548109  0.57878920     0.35540
H2398       H  0.18084962  0.64600275  0.60346302     0.40630
H2399       H  0.06669915  0.76031415  0.60648730     0.40250
H2400       H  0.05967873  0.73874149  0.64167734     0.35140
C2401       C  0.68292178  0.33323244  0.18412237    -0.26590
C2402       C  0.70983351  0.33047670  0.16365843    -0.14660
C2403       C  0.71606408  0.29863582  0.15218258     0.35970
C2404       C  0.69099751  0.27590781  0.15140226    -0.26040
C2405       C  0.66276251  0.27945256  0.16996955    -0.15280
C2406       C  0.66124438  0.30811031  0.18921656     0.37050
N2407       N  0.63808639  0.31320038  0.21415879    -0.89530
H2408       H  0.67857586  0.35528614  0.19739800     0.18170
H2409       H  0.69507863  0.25495563  0.13672982     0.18160
N2410       N  0.74746249  0.28730413  0.14354654    -0.88560
H2411       H  0.62041599  0.32905771  0.20576429     0.35540
H2412       H  0.62761571  0.29176393  0.22157487     0.40630
H2413       H  0.76407620  0.30569024  0.14484658     0.40250
H2414       H  0.74727030  0.27833375  0.12016554     0.35140
C2415       C  0.68351906  0.39146001  0.13651679    -0.26590
C2416       C  0.70836186  0.39135934  0.15980869    -0.14660
C2417       C  0.71023643  0.41874989  0.18046594     0.35970
C2418       C  0.68551542  0.44217669  0.18001442    -0.26040
C2419       C  0.66067487  0.44113411  0.15716626    -0.15280
C2420       C  0.66098741  0.41644544  0.13393491     0.37050
N2421       N  0.63815412  0.41635128  0.10797866    -0.89530
H2422       H  0.68175755  0.37160843  0.11976672     0.18170
H2423       H  0.68651049  0.46213991  0.19685668     0.18160
N2424       N  0.73753506  0.42434902  0.20058865    -0.88560
H2425       H  0.64142095  0.39602861  0.09340605     0.35540
H2426       H  0.64354465  0.43599166  0.09329184     0.40630
H2427       H  0.72951472  0.42690241  0.22418554     0.40250
H2428       H  0.74800129  0.44620436  0.19380412     0.35140
C2429       C  0.74930710  0.36072784  0.21892507    -0.26590
C2430       C  0.75807133  0.35946819  0.18612119    -0.14660
C2431       C  0.79155309  0.35540999  0.18023996     0.35970
C2432       C  0.81359665  0.35847839  0.20492455    -0.26040
C2433       C  0.80577200  0.35657257  0.23773874    -0.15280
C2434       C  0.77195714  0.35977251  0.24447210     0.37050
N2435       N  0.75957287  0.36571175  0.27619869    -0.89530
H2436       H  0.72436094  0.36386594  0.22514589     0.18170
H2437       H  0.83771627  0.36135915  0.19650695     0.18160
N2438       N  0.80463513  0.34622072  0.14975028    -0.88560
H2439       H  0.73992070  0.35070173  0.28038314     0.35540
H2440       H  0.77636784  0.36073149  0.29399275     0.40630
H2441       H  0.82210936  0.36307724  0.14327886     0.40250
H2442       H  0.81643739  0.32404493  0.15238333     0.35140
C2443       C  0.76752421  0.39407291  0.12232548    -0.26590
C2444       C  0.74782324  0.36635329  0.12546752    -0.14660
C2445       C  0.74486802  0.34662771  0.09771564     0.35970
C2446       C  0.76899933  0.34782894  0.07408889    -0.26040
C2447       C  0.79338058  0.37123628  0.07536232    -0.15280
C2448       C  0.79039728  0.39665336  0.09780401     0.37050
N2449       N  0.81241428  0.42335816  0.09767796    -0.89530
H2450       H  0.76774926  0.41197376  0.14128949     0.18170
H2451       H  0.76832702  0.33078880  0.05433306     0.18160
N2452       N  0.71612361  0.32879577  0.09124038    -0.88560
H2453       H  0.80852743  0.43845325  0.11743320     0.35540
H2454       H  0.80718328  0.43724380  0.07743964     0.40630
H2455       H  0.72231544  0.30577895  0.08300693     0.40250
H2456       H  0.70444074  0.34011425  0.07210443     0.35140
C2457       C  0.68211256  0.73916653  0.16448058    -0.26590
C2458       C  0.65154031  0.73042765  0.15290228    -0.14660
C2459       C  0.65114442  0.70070105  0.13462787     0.35970
C2460       C  0.67922371  0.68240394  0.13221191    -0.26040
C2461       C  0.70488204  0.68547850  0.15418570    -0.15280
C2462       C  0.70564166  0.71554634  0.17105157     0.37050
N2463       N  0.72890687  0.72309432  0.19506488    -0.89530
H2464       H  0.68681207  0.76366467  0.17208123     0.18170
H2465       H  0.67865387  0.66231249  0.11568782     0.18160
N2466       N  0.62409037  0.68637288  0.11837313    -0.88560
H2467       H  0.71690958  0.72773587  0.21656603     0.35540
H2468       H  0.74089164  0.74416850  0.18831292     0.40630
H2469       H  0.60263915  0.69829365  0.12053986     0.40250
H2470       H  0.62006580  0.66369810  0.12860324     0.35140
C2471       C  0.64580888  0.77484440  0.21481229    -0.26590
C2472       C  0.62162210  0.77515491  0.19095857    -0.14660
C2473       C  0.59778815  0.79972577  0.19454156     0.35970
C2474       C  0.60033783  0.82329363  0.21854721    -0.26040
C2475       C  0.62655846  0.82498872  0.23990859    -0.15280
C2476       C  0.65067437  0.80079827  0.23599499     0.37050
N2477       N  0.68137020  0.80281689  0.25143697    -0.89530
H2478       H  0.66311140  0.75575022  0.21677980     0.18170
H2479       H  0.58166913  0.84146352  0.21974549     0.18160
N2480       N  0.57149768  0.80236319  0.17256187    -0.88560
H2481       H  0.69905985  0.80398987  0.23375618     0.35540
H2482       H  0.68512447  0.78168405  0.26461249     0.40630
H2483       H  0.57256841  0.82498067  0.16152604     0.40250
H2484       H  0.55012359  0.80115868  0.18557689     0.35140
C2485       C  0.64166059  0.80724521  0.13551216    -0.26590
C2486       C  0.62357098  0.77841893  0.13060577    -0.14660
C2487       C  0.61182984  0.77355420  0.09874225     0.35970
C2488       C  0.61364095  0.79846563  0.07602441    -0.26040
C2489       C  0.62879315  0.82774511  0.08281636    -0.15280
C2490       C  0.64325370  0.83212753  0.11300676     0.37050
N2491       N  0.65900442  0.86164003  0.12230973    -0.89530
H2492       H  0.65449567  0.81141324  0.15770003     0.18170
H2493       H  0.60373433  0.79440982  0.05233202     0.18160
N2494       N  0.59905381  0.74344523  0.08811862    -0.88560
H2495       H  0.64632286  0.87111023  0.14177561     0.35540
H2496       H  0.65773540  0.87920415  0.10452092     0.40630
H2497       H  0.61342618  0.73488527  0.06940733     0.40250
H2498       H  0.57602588  0.74740324  0.07882340     0.35140
C2499       C  0.56556033  0.68377748  0.18560353    -0.26590
C2500       C  0.53948066  0.68770854  0.16511134    -0.14660
C2501       C  0.53730084  0.71604147  0.14642612     0.35970
C2502       C  0.56285828  0.73808961  0.14669810    -0.26040
C2503       C  0.59145218  0.73240437  0.16424354    -0.13360
C2504       C  0.59130351  0.70524233  0.18577705     0.37050
N2505       N  0.61701290  0.69698592  0.20731504    -0.89530
H2506       H  0.56679827  0.66264177  0.20087190     0.18170
H2507       H  0.56017988  0.75949355  0.13228413     0.18160
N2508       N  0.50937302  0.72388738  0.12763445    -0.88560
H2509       H  0.62724956  0.67536646  0.19925386     0.35540
H2510       H  0.63515347  0.71378498  0.20789379     0.40630
H2511       H  0.49045633  0.70798360  0.13171517     0.40250
H2512       H  0.51568532  0.72203068  0.10347313     0.35140
C2513       C  0.15066894  0.70425473  0.74141710    -0.26590
C2514       C  0.12481678  0.68244024  0.74335226    -0.14660
C2515       C  0.09977721  0.68576894  0.72010688     0.35970
C2516       C  0.10194129  0.70938678  0.69641805    -0.26040
C2517       C  0.12871595  0.72978687  0.69322089    -0.15280
C2518       C  0.15475656  0.72434348  0.71474551     0.37050
N2519       N  0.18655155  0.73567046  0.70822491    -0.89530
H2520       H  0.16969921  0.70434915  0.75883404     0.18170
H2521       H  0.08233866  0.71149023  0.67972323     0.18160
N2522       N  0.07228790  0.66469014  0.71995428    -0.88560
H2523       H  0.19511692  0.74804382  0.72838212     0.35540
H2524       H  0.20137988  0.71553812  0.70482931     0.40630
H2525       H  0.07970895  0.64189231  0.71216188     0.40250
H2526       H  0.05496288  0.67235883  0.70344572     0.35140
C2527       C  0.18541932  0.65309246  0.78264211    -0.26590
C2528       C  0.15289236  0.65205859  0.79204500    -0.14660
C2529       C  0.14749265  0.64802141  0.82557917     0.35970
C2530       C  0.17236843  0.65206830  0.84746519    -0.26040
C2531       C  0.20492792  0.65325319  0.83848672    -0.15280
C2532       C  0.21102186  0.65395119  0.80473687     0.37050
N2533       N  0.24261658  0.65466912  0.79136192    -0.89530
H2534       H  0.19123196  0.65303720  0.75735743     0.18170
H2535       H  0.16509994  0.65024580  0.87206464     0.18160
N2536       N  0.11788644  0.63616592  0.83836911    -0.88560
H2537       H  0.25373580  0.63236018  0.79459637     0.35540
H2538       H  0.25603426  0.67330110  0.80154182     0.40630
H2539       H  0.12228311  0.61395954  0.84945425     0.40250
H2540       H  0.10990563  0.65229390  0.85599569     0.35140
C2541       C  0.07086256  0.62647923  0.78267821    -0.26590
C2542       C  0.09214347  0.65307406  0.78261582    -0.14660
C2543       C  0.08273780  0.68096691  0.80071687     0.35970
C2544       C  0.05701239  0.67892433  0.82216540    -0.26040
C2545       C  0.04045656  0.64991647  0.82681635    -0.15280
C2546       C  0.04597825  0.62409033  0.80538390     0.37050
N2547       N  0.02665887  0.59541453  0.80692486    -0.89530
H2548       H  0.07383208  0.60689962  0.76592012     0.18170
H2549       H  0.05159163  0.69962758  0.83715709     0.18160
N2550       N  0.10041774  0.71077452  0.79889322    -0.88560
H2551       H  0.03417208  0.57844958  0.78989629     0.35540
H2552       H  0.00316050  0.60191321  0.80078294     0.40630
H2553       H  0.12271356  0.70740448  0.80988127     0.40250
H2554       H  0.08895330  0.72914952  0.81177811     0.35140
C2555       C  0.14454244  0.62710930  0.71179120    -0.26590
C2556       C  0.13265076  0.62212903  0.74337192    -0.14660
C2557       C  0.12998528  0.58936371  0.75320207     0.35970
C2558       C  0.13066021  0.56448417  0.72989182    -0.26040
C2559       C  0.13739950  0.57121568  0.69766769    -0.15280
C2560       C  0.14576552  0.60276869  0.68885579     0.37050
N2561       N  0.15482049  0.61155134  0.65674453    -0.89530
H2562       H  0.15246859  0.65046430  0.70362955     0.18170
H2563       H  0.12621189  0.53971367  0.73689612     0.18160
N2564       N  0.12615642  0.58134746  0.78643133    -0.88560
H2565       H  0.13753777  0.62771648  0.64808667     0.35540
H2566       H  0.15484580  0.59197238  0.64099954     0.40630
H2567       H  0.14806085  0.58598816  0.79778887     0.40250
H2568       H  0.12209286  0.55659180  0.78909834     0.35140
C2569       C  0.25342051  0.13020665  0.71781592    -0.26590
C2570       C  0.25309786  0.15423670  0.69347324    -0.14660
C2571       C  0.28049926  0.17503720  0.69307070     0.35970
C2572       C  0.30353343  0.17353607  0.71745449    -0.26040
C2573       C  0.30371216  0.14900517  0.74087788    -0.15280
C2574       C  0.27644014  0.12882648  0.74244556     0.37050
N2575       N  0.27133549  0.10740259  0.76896888    -0.89530
H2576       H  0.23693612  0.11042614  0.71756762     0.18170
H2577       H  0.32391976  0.18970938  0.71593612     0.18160
N2578       N  0.28798205  0.19473262  0.66580893    -0.88560
H2579       H  0.25022451  0.09407229  0.76610037     0.35540
H2580       H  0.26812292  0.12157205  0.78948057     0.40630
H2581       H  0.30855458  0.18518810  0.65499868     0.40250
H2582       H  0.29425718  0.21785406  0.67377482     0.35140
C2583       C  0.39550991  0.13792275  0.75021633    -0.26590
C2584       C  0.36359920  0.13954937  0.73847583    -0.14660
C2585       C  0.36014973  0.13077121  0.70520242     0.35970
C2586       C  0.38626191  0.13254013  0.68460299    -0.26040
C2587       C  0.41689348  0.13838673  0.69611086    -0.15280
C2588       C  0.42218564  0.13902589  0.72953489     0.37050
N2589       N  0.45386926  0.14014007  0.74326093    -0.89530
H2590       H  0.39993065  0.13622929  0.77573194     0.18170
H2591       H  0.38260876  0.12800479  0.65921143     0.18160
N2592       N  0.33140740  0.11694606  0.69217895    -0.88560
H2593       H  0.45585805  0.16185252  0.75597730     0.35540
H2594       H  0.47151294  0.14054137  0.72555235     0.40630
H2595       H  0.33667327  0.09360224  0.68406935     0.40250
H2596       H  0.32499720  0.13046147  0.67210070     0.35140
C2597       C  0.36547307  0.19290105  0.79198552    -0.26590
C2598       C  0.33614004  0.18085177  0.77992061    -0.14660
C2599       C  0.30804451  0.19712869  0.79189402     0.35970
C2600       C  0.31058586  0.22214541  0.81449096    -0.26040
C2601       C  0.33913792  0.22814504  0.83169481    -0.15280
C2602       C  0.36716374  0.21255757  0.81934985     0.37050
N2603       N  0.39775889  0.21351059  0.83484392    -0.89530
H2604       H  0.38810651  0.18518043  0.78292600     0.18170
H2605       H  0.28815105  0.23263696  0.82229174     0.18160
N2606       N  0.27610253  0.18759805  0.78324685    -0.88560
H2607       H  0.39516543  0.20521757  0.85824500     0.35540
H2608       H  0.40759411  0.23657954  0.83358349     0.40630
H2609       H  0.26432524  0.20744620  0.77310292     0.40250
H2610       H  0.26380541  0.18096894  0.80400894     0.35140
C2611       C  0.33847017  0.12594262  0.82078616    -0.26590
C2612       C  0.33506218  0.11892019  0.78760343    -0.14660
C2613       C  0.33485281  0.08552633  0.77898787     0.35970
C2614       C  0.33567657  0.06142410  0.80271563    -0.26040
C2615       C  0.33802165  0.06935026  0.83521552    -0.15280
C2616       C  0.34025287  0.10200088  0.84427519     0.37050
N2617       N  0.34405127  0.11204171  0.87712488    -0.89530
H2618       H  0.34036441  0.15024426  0.82959864     0.18170
H2619       H  0.33446039  0.03623635  0.79561376     0.18160
N2620       N  0.33306323  0.07567743  0.74618214    -0.88560
H2621       H  0.36615546  0.12382029  0.87913731     0.35540
H2622       H  0.34487162  0.09258970  0.89290943     0.40630
H2623       H  0.31272166  0.06121426  0.74314309     0.40250
H2624       H  0.35326879  0.06154156  0.74112186     0.35140
C2625       C  0.69047206  0.18098495  0.69413834    -0.26590
C2626       C  0.70977824  0.15371921  0.68804778    -0.14660
C2627       C  0.71090447  0.13125605  0.71385906     0.35970
C2628       C  0.68585952  0.13051657  0.73649304    -0.26040
C2629       C  0.66220265  0.15506953  0.73805674    -0.15280
C2630       C  0.66519824  0.18065369  0.71584376     0.37050
N2631       N  0.64300301  0.20710620  0.71546123    -0.89530
H2632       H  0.69546118  0.20375443  0.68280384     0.18170
H2633       H  0.68594085  0.11049802  0.75287564     0.18160
N2634       N  0.73926688  0.11283151  0.72069183    -0.88560
H2635       H  0.63216207  0.20776549  0.69282866     0.35540
H2636       H  0.65558086  0.22872183  0.71853889     0.40630
H2637       H  0.73275252  0.08877960  0.72448057     0.40250
H2638       H  0.74892588  0.12139239  0.74225681     0.35140
C2639       C  0.76932961  0.18866786  0.68533890    -0.26590
C2640       C  0.75084986  0.18468719  0.65720076    -0.14660
C2641       C  0.75725116  0.20655121  0.63152121     0.35970
C2642       C  0.77956422  0.23141444  0.63580966    -0.26040
C2643       C  0.80023429  0.23297436  0.66266224    -0.15280
C2644       C  0.79544248  0.20932183  0.68698157     0.37050
N2645       N  0.81705356  0.20397947  0.71330630    -0.89530
H2646       H  0.76664790  0.17183109  0.70493664     0.18170
H2647       H  0.78352302  0.24666716  0.61530917     0.18160
N2648       N  0.74564850  0.20265514  0.59942805    -0.88560
H2649       H  0.83711158  0.19129741  0.70520436     0.35540
H2650       H  0.82357996  0.22538675  0.72470513     0.40630
H2651       H  0.72160465  0.20919186  0.59751938     0.40250
H2652       H  0.75048054  0.17944352  0.59100639     0.35140
C2653       C  0.78749667  0.12816745  0.64930132    -0.26590
C2654       C  0.75424381  0.12348878  0.65542812    -0.14660
C2655       C  0.74361235  0.09086052  0.65840465     0.35970
C2656       C  0.76614994  0.06550010  0.65976368    -0.26040
C2657       C  0.79901468  0.07162566  0.65651072    -0.15280
C2658       C  0.80970299  0.10292589  0.65027957     0.37050
N2659       N  0.84334954  0.10904744  0.64536226    -0.89530
H2660       H  0.79690626  0.15146138  0.64288630     0.18170
H2661       H  0.75790929  0.04090645  0.66294053     0.18160
N2662       N  0.70999129  0.08338912  0.65930496    -0.88560
H2663       H  0.84754882  0.13371326  0.64226827     0.35540
H2664       H  0.85006213  0.09775081  0.62396143     0.40630
H2665       H  0.70530754  0.07000661  0.67993644     0.40250
H2666       H  0.70475639  0.06846502  0.63972352     0.35140
C2667       C  0.68183527  0.17436392  0.62403504    -0.26590
C2668       C  0.70686532  0.15129517  0.62638859    -0.14660
C2669       C  0.70829151  0.12799306  0.60068755     0.35970
C2670       C  0.68243799  0.12522958  0.57902345    -0.26040
C2671       C  0.65681945  0.14698245  0.57957494    -0.15280
C2672       C  0.65677974  0.17215937  0.60200040     0.37050
N2673       N  0.63138075  0.19584045  0.60222000    -0.89530
H2674       H  0.68267789  0.19642152  0.63712923     0.18170
H2675       H  0.68325644  0.10714473  0.56019764     0.18160
N2676       N  0.73650411  0.10888198  0.59447464    -0.88560
H2677       H  0.63516949  0.21325810  0.62003063     0.35540
H2678       H  0.61014216  0.18391833  0.60825722     0.40630
H2679       H  0.75483513  0.12443290  0.58738140     0.40250
H2680       H  0.73286876  0.09274277  0.57548687     0.35140
C2681       C  0.15393431  0.70880813  0.33868734    -0.26590
C2682       C  0.12748795  0.73042173  0.33916141    -0.14660
C2683       C  0.10323798  0.72442040  0.31546848     0.35970
C2684       C  0.10807382  0.70109394  0.29167938    -0.26040
C2685       C  0.13507613  0.68030747  0.29042693    -0.15280
C2686       C  0.15766392  0.68383967  0.31615622     0.37050
N2687       N  0.18379842  0.66168233  0.32178679    -0.89530
H2688       H  0.17198206  0.71063568  0.35735615     0.18170
H2689       H  0.08793989  0.69778028  0.27575326     0.18160
N2690       N  0.07151814  0.73786092  0.31592237    -0.88560
H2691       H  0.20487571  0.67507553  0.32465021     0.35540
H2692       H  0.18803835  0.64702265  0.30206431     0.40630
H2693       H  0.07102830  0.76113636  0.30660241     0.40250
H2694       H  0.06047756  0.73515593  0.33814406     0.35140
C2695       C  0.15061528  0.70264608  0.44467407    -0.26590
C2696       C  0.12516096  0.68088945  0.44666902    -0.14660
C2697       C  0.10084020  0.68180531  0.42320706     0.35970
C2698       C  0.10212562  0.70523745  0.39896157    -0.26040
C2699       C  0.12619759  0.72942644  0.39805215    -0.15280
C2700       C  0.15206256  0.72603803  0.42054535     0.37050
N2701       N  0.18094498  0.74455749  0.41855628    -0.89530
H2702       H  0.17016342  0.70120380  0.46184125     0.18170
H2703       H  0.08342444  0.70529620  0.38091441     0.18160
N2704       N  0.07512312  0.65870919  0.42373289    -0.88560
H2705       H  0.20025671  0.72871434  0.41527924     0.35540
H2706       H  0.18427197  0.75660858  0.44037743     0.40630
H2707       H  0.08521884  0.63581355  0.42051729     0.40250
H2708       H  0.05938446  0.66241232  0.40451123     0.35140
C2709       C  0.17888961  0.77894267  0.34778169    -0.26590
C2710       C  0.15371921  0.77883835  0.37058050    -0.14660
C2711       C  0.15551196  0.80316949  0.39489040     0.35970
C2712       C  0.18044759  0.82540225  0.39513793    -0.26040
C2713       C  0.20391906  0.82755151  0.37099100    -0.15280
C2714       C  0.20507681  0.80058368  0.34962145     0.37050
N2715       N  0.23358626  0.79314942  0.33173123    -0.89530
H2716       H  0.17929823  0.76177103  0.32840466     0.18170
H2717       H  0.18174279  0.84000025  0.41621278     0.18160
N2718       N  0.13275486  0.80652675  0.42041256    -0.88560
H2719       H  0.23061723  0.77231401  0.31781220     0.35540
H2720       H  0.25185680  0.78803970  0.34819499     0.40630
H2721       H  0.12839762  0.78456445  0.43163031     0.40250
H2722       H  0.11175508  0.81725125  0.41191761     0.35140
C2723       C  0.09384640  0.80019793  0.34417281    -0.26590
C2724       C  0.09460278  0.77602017  0.36824616    -0.14660
C2725       C  0.06930730  0.77706756  0.39150013     0.35970
C2726       C  0.04463081  0.80001365  0.38885499    -0.26040
C2727       C  0.04439236  0.82337666  0.36481782    -0.15280
C2728       C  0.06930718  0.82353454  0.34216421     0.37050
N2729       N  0.07021703  0.84790451  0.31772052    -0.89530
H2730       H  0.11287540  0.80078325  0.32654156     0.18170
H2731       H  0.02586299  0.80023125  0.40680511     0.18160
N2732       N  0.06926554  0.75743109  0.41960960    -0.88560
H2733       H  0.09001306  0.84444806  0.30274286     0.35540
H2734       H  0.07359503  0.87019321  0.32909945     0.40630
H2735       H  0.04784556  0.74429188  0.41997443     0.40250
H2736       H  0.06963620  0.77250274  0.43977022     0.35140
loop_ 
_geom_bond_atom_site_label_1 
_geom_bond_atom_site_label_2 
_geom_bond_distance 
_geom_bond_site_symmetry_2 
_ccdc_geom_bond_type 
C1         C2682   1.583       .  S
C1         C2699   1.574       .  S
C1         C2710   1.579       .  S
C1         C2724   1.572       .  S
C2         C2626   1.590       .  S
C2         C2640   1.564       .  S
C2         C2654   1.570       .  S
C2         C2668   1.583       .  S
C3         C2573   1.555       .  S
C3         C2584   1.589       .  S
C3         C2598   1.597       .  S
C3         C2612   1.575       .  S
C4         C2514   1.567       .  S
C4         C2528   1.577       .  S
C4         C2542   1.565       .  S
C4         C2556   1.578       .  S
C5         C2458   1.580       .  S
C5         C2472   1.593       .  S
C5         C2486   1.583       .  S
C5         C2503   1.561       .  S
C6         C2402   1.578       .  S
C6         C2416   1.573       .  S
C6         C2430   1.584       .  S
C6         C2444   1.569       .  S
C7         C2363   1.564       .  S
C7         C2377   1.560       .  S
C7         C2388   1.575       .  S
C7         C2517   1.563       .  S
C8         C2304   1.585       .  S
C8         C2318   1.583       .  S
C8         C2332   1.570       .  S
C8         C2346   1.562       .  S
C9         C2262   1.562       .  S
C9         C2276   1.580       .  S
C9         C2290   1.576       .  S
C9         C2629   1.562       .  S
C10        C2206   1.569       .  S
C10        C2220   1.590       .  S
C10        C2234   1.595       .  S
C10        C2251   1.579       .  S
C11        C2150   1.583       .  S
C11        C2167   1.581       .  S
C11        C2181   1.566       .  S
C11        C2195   1.564       .  S
C12        C2111   1.579       .  S
C12        C2122   1.564       .  S
C12        C2136   1.574       .  S
C12        C2461   1.586       .  S
C13        C2055   1.581       .  S
C13        C2066   1.562       .  S
C13        C2080   1.582       .  S
C13        C2094   1.595       .  S
C14        C1996   1.580       .  S
C14        C2010   1.595       .  S
C14        C2024   1.602       .  S
C14        C2038   1.560       .  S
C15        C1940   1.572       .  S
C15        C1954   1.617       .  S
C15        C1968   1.575       .  S
C15        C1982   1.608       .  S
C16        C1884   1.589       .  S
C16        C1898   1.598       .  S
C16        C1912   1.562       .  S
C16        C1926   1.592       .  S
C17        C1828   1.554       .  S
C17        C1842   1.568       .  S
C17        C1856   1.578       .  S
C17        C1870   1.563       .  S
C18        C1772   1.571       .  S
C18        C1786   1.568       .  S
C18        C1800   1.573       .  S
C18        C1814   1.578       .  S
C19        C1744   1.569       .  S
C19        C1758   1.578       .  S
C19        C1887   1.583       .  S
C19        C2013   1.578       .  S
C20        C1702   1.570       .  S
C20        C1716   1.581       .  S
C20        C1730   1.604       .  S
C20        C1943   1.601       .  S
C21        C1674   1.579       .  S
C21        C1691   1.579       .  S
C21        C1789   1.565       .  S
C21        C1999   1.574       .  S
C22        C1632   1.574       .  S
C22        C1646   1.575       .  S
C22        C1663   1.574       .  S
C22        C2052   1.583       .  S
C23        C1604   1.573       .  S
C23        C1618   1.575       .  S
C23        C1775   1.585       .  S
C23        C1901   1.581       .  S
O24          V32   1.891       .  S
O24          C34   1.261       .  A
O25          V32   1.900       .  S
O25          C35   1.263       .  A
O26          V32   1.911       .  S
O26          C36   1.267       .  A
O27          V32   1.905       .  S
O27          C37   1.265       .  A
O28          V33   1.893       .  S
O28          C37   1.262       .  A
O29          V33   1.899       .  S
O29          C36   1.263       .  A
O30          V33   1.905       .  S
O30          C35   1.266       .  A
O31          V33   1.898       .  S
O31          C34   1.263       .  A
V32          V33   2.090       .  T
C34        C1593   1.460       .  S
C35          C49   1.469       .  S
C36         C632   1.473       .  S
C37        C1803   1.467       .  S
O38          V46   1.906       .  S
O38          C48   1.264       .  A
O39          V46   1.905       .  S
O39          C49   1.266       .  A
O40          V46   1.896       .  S
O40          C50   1.265       .  A
O41          V46   1.907       .  S
O41          C51   1.264       .  A
O42          V47   1.899       .  S
O42          C51   1.265       .  A
O43          V47   1.902       .  S
O43          C50   1.264       .  A
O44          V47   1.900       .  S
O44          C49   1.263       .  A
O45          V47   1.899       .  S
O45          C48   1.265       .  A
V46          V47   2.088       .  T
C48        C1971   1.476       .  S
C50        C1677   1.480       .  S
C51         C602   1.470       .  S
O52          V60   1.896       .  S
O52          C62   1.264       .  A
O53          V60   1.896       .  S
O53          C63   1.264       .  A
O54          V60   1.896       .  S
O54          C64   1.263       .  A
O55          V60   1.898       .  S
O55          C65   1.263       .  A
O56          V61   1.881       .  S
O56          C65   1.261       .  A
O57          V61   1.882       .  S
O57          C64   1.261       .  A
O58          V61   1.893       .  S
O58          C63   1.262       .  A
O59          V61   1.892       .  S
O59          C62   1.262       .  A
V60          V61   2.090       .  T
C62        C2321   1.468       .  S
C63          C77   1.458       .  S
C64         C689   1.450       .  S
C65        C2671   1.468       .  S
O66          V74   1.903       .  S
O66          C76   1.264       .  A
O67          V74   1.899       .  S
O67          C77   1.264       .  A
O68          V74   1.900       .  S
O68          C78   1.263       .  A
O69          V74   1.888       .  S
O69          C79   1.263       .  A
O70          V75   1.912       .  S
O70          C79   1.267       .  A
O71          V75   1.918       .  S
O71          C78   1.269       .  A
O72          V75   1.890       .  S
O72          C77   1.261       .  A
O73          V75   1.890       .  S
O73          C76   1.261       .  A
V74          V75   2.088       .  T
C76        C2587   1.463       .  S
C78         C587   1.479       .  S
C79        C2293   1.487       .  S
O80          V88   1.891       .  S
O80          C90   1.265       .  A
O81          V88   1.903       .  S
O81          C91   1.265       .  A
O82          V88   1.894       .  S
O82          C92   1.261       .  A
O83          V88   1.898       .  S
O83          C93   1.263       .  A
O84          V89   1.896       .  S
O84          C93   1.263       .  A
O85          V89   1.888       .  S
O85          C92   1.263       .  A
O86          V89   1.900       .  S
O86          C91   1.264       .  A
O87          V89   1.897       .  S
O87          C90   1.262       .  A
V88          V89   2.090       .  T
C90        C2223   1.473       .  S
C91         C105   1.468       .  S
C92         C573   1.453       .  S
C93        C2559   1.466       .  S
O94         V102   1.897       .  S
O94         C104   1.265       .  A
O95         V102   1.900       .  S
O95         C105   1.264       .  A
O96         V102   1.903       .  S
O96         C106   1.264       .  A
O97         V102   1.899       .  S
O97         C107   1.263       .  A
O98         V103   1.903       .  S
O98         C107   1.267       .  A
O99         V103   1.907       .  S
O99         C106   1.266       .  A
O100        V103   1.903       .  S
O100        C105   1.264       .  A
O101        V103   1.900       .  S
O101        C104   1.264       .  A
V102        V103   2.086       .  T
C104       C2696   1.480       .  S
C106        C659   1.473       .  S
C107       C2391   1.490       .  S
O108        V116   1.903       .  S
O108        C118   1.265       .  A
O109        V116   1.907       .  S
O109        C119   1.265       .  A
O110        V116   1.900       .  S
O110        C120   1.264       .  A
O111        V116   1.895       .  S
O111        C121   1.265       .  A
O112        V117   1.904       .  S
O112        C121   1.264       .  A
O113        V117   1.901       .  S
O113        C120   1.264       .  A
O114        V117   1.907       .  S
O114        C119   1.265       .  A
O115        V117   1.898       .  S
O115        C118   1.265       .  A
V116        V117   2.087       .  T
C118       C1649   1.483       .  S
C119        C133   1.476       .  S
C120        C560   1.467       .  S
C121       C1915   1.484       .  S
O122        V130   1.901       .  S
O122        C132   1.263       .  A
O123        V130   1.907       .  S
O123        C133   1.266       .  A
O124        V130   1.909       .  S
O124        C134   1.267       .  A
O125        V130   1.905       .  S
O125        C135   1.264       .  A
O126        V131   1.899       .  S
O126        C135   1.267       .  A
O127        V131   1.912       .  S
O127        C134   1.265       .  A
O128        V131   1.906       .  S
O128        C133   1.265       .  A
O129        V131   1.899       .  S
O129        C132   1.264       .  A
V130        V131   2.087       .  T
C132       C1859   1.469       .  S
C134        C718   1.481       .  S
C135       C1607   1.485       .  S
O136        V144   1.896       .  S
O136        C146   1.265       .  A
O137        V144   1.903       .  S
O137        C147   1.264       .  A
O138        V144   1.905       .  S
O138        C148   1.264       .  A
O139        V144   1.898       .  S
O139        C149   1.265       .  A
O140        V145   1.908       .  S
O140        C149   1.265       .  A
O141        V145   1.903       .  S
O141        C148   1.266       .  A
O142        V145   1.902       .  S
O142        C147   1.265       .  A
O143        V145   1.899       .  S
O143        C146   1.263       .  A
V144        V145   2.086       .  T
C146       C2139   1.481       .  S
C147        C704   1.469       .  S
C148        C162   1.472       .  S
C149       C2419   1.486       .  S
O150        V158   1.896       .  S
O150        C160   1.264       .  A
O151        V158   1.902       .  S
O151        C161   1.265       .  A
O152        V158   1.897       .  S
O152        C162   1.263       .  A
O153        V158   1.893       .  S
O153        C163   1.263       .  A
O154        V159   1.905       .  S
O154        C163   1.267       .  A
O155        V159   1.911       .  S
O155        C162   1.267       .  A
O156        V159   1.907       .  S
O156        C161   1.265       .  A
O157        V159   1.899       .  S
O157        C160   1.263       .  A
V158        V159   2.087       .  T
C160       C2500   1.474       .  S
C161        C618   1.473       .  S
C163       C2164   1.484       .  S
O164        V172   1.901       .  S
O164        C174   1.267       .  A
O165        V172   1.908       .  S
O165        C175   1.266       .  A
O166        V172   1.902       .  S
O166        C176   1.263       .  A
O167        V172   1.888       .  S
O167        C177   1.261       .  A
O168        V173   1.904       .  S
O168        C177   1.265       .  A
O169        V173   1.911       .  S
O169        C176   1.268       .  A
O170        V173   1.908       .  S
O170        C175   1.266       .  A
O171        V173   1.901       .  S
O171        C174   1.263       .  A
V172        V173   2.087       .  T
C174       C2083   1.484       .  S
C175        C189   1.478       .  S
C176        C646   1.476       .  S
C177       C1747   1.472       .  S
O178        V186   1.901       .  S
O178        C188   1.264       .  A
O179        V186   1.909       .  S
O179        C189   1.266       .  A
O180        V186   1.906       .  S
O180        C190   1.264       .  A
O181        V186   1.904       .  S
O181        C191   1.267       .  A
O182        V187   1.905       .  S
O182        C191   1.265       .  A
O183        V187   1.905       .  S
O183        C190   1.266       .  A
O184        V187   1.907       .  S
O184        C189   1.265       .  A
O185        V187   1.899       .  S
O185        C188   1.263       .  A
V186        V187   2.087       .  T
C188       C1719   1.472       .  S
C190        C676   1.474       .  S
C191       C2027   1.494       .  S
C192       C1548   1.573       .  S
C192       C1565   1.583       .  S
C192       C1576   1.563       .  S
C192       C2307   1.584       .  S
C193       C1520   1.575       .  S
C193       C1534   1.568       .  S
C193       C1845   1.569       .  S
C193       C2475   1.575       .  S
O194        V202   1.902       .  S
O194        C204   1.266       .  A
O195        V202   1.907   1_565  S
O195        C205   1.266       .  A
O196        V202   1.903       .  S
O196        C206   1.264       .  A
O197        V202   1.895   1_565  S
O197        C207   1.266       .  A
O198        V203   1.911   1_565  S
O198        C207   1.266       .  A
O199        V203   1.908       .  S
O199        C206   1.267       .  A
O200        V203   1.905   1_565  S
O200        C205   1.265       .  A
O201        V203   1.899       .  S
O201        C204   1.264       .  A
V202        V203   2.085       .  T
C204       C2279   1.488       .  S
C205        C219   1.475       .  S
C206        C235   1.474       .  S
C207       C1929   1.494       .  S
O208        V216   1.902       .  S
O208        C218   1.265       .  A
O209        V216   1.908   1_556  S
O209        C219   1.266       .  A
O210        V216   1.892       .  S
O210        C220   1.261       .  A
O211        V216   1.893   1_556  S
O211        C221   1.262       .  A
O212        V217   1.899   1_556  S
O212        C221   1.265       .  A
O213        V217   1.901       .  S
O213        C220   1.265       .  A
O214        V217   1.904   1_556  S
O214        C219   1.265       .  A
O215        V217   1.897       .  S
O215        C218   1.263       .  A
V216        V217   2.089       .  T
C218       C2489   1.473       .  S
C220        C249   1.461       .  S
C221       C1761   1.474       .  S
C222       C1495   1.595       .  S
C222       C1506   1.572       .  S
C222       C1705   1.593       .  S
C222       C2265   1.558       .  S
O223        V231   1.898   1_556  S
O223        C233   1.264       .  A
O224        V231   1.898       .  S
O224        C234   1.264       .  A
O225        V231   1.902   1_556  S
O225        C235   1.264       .  A
O226        V231   1.895       .  S
O226        C236   1.263       .  A
O227        V232   1.901       .  S
O227        C236   1.265       .  A
O228        V232   1.909   1_556  S
O228        C235   1.267       .  A
O229        V232   1.899       .  S
O229        C234   1.263       .  A
O230        V232   1.899   1_556  S
O230        C233   1.263       .  A
V231        V232   2.089       .  T
C233       C1492   1.466       .  S
C234        C248   1.464       .  S
C236       C1478   1.478       .  S
O237        V245   1.902   1_565  S
O237        C247   1.267       .  A
O238        V245   1.903       .  S
O238        C248   1.265       .  A
O239        V245   1.895   1_565  S
O239        C249   1.262       .  A
O240        V245   1.892       .  S
O240        C250   1.264       .  A
O241        V246   1.905       .  S
O241        C250   1.265       .  A
O242        V246   1.899   1_565  S
O242        C249   1.265       .  A
O243        V246   1.895       .  S
O243        C248   1.263       .  A
O244        V246   1.901   1_565  S
O244        C247   1.264       .  A
V245        V246   2.087       .  T
C247       C1523   1.488       .  S
C250       C1562   1.481       .  S
C251       C1464   1.582       .  S
C251       C1481   1.589       .  S
C251       C1551   1.561       .  S
C251       C2405   1.581       .  S
O252        V260   1.903   1_556  S
O252        C262   1.265       .  A
O253        V260   1.911       .  S
O253        C263   1.267       .  A
O254        V260   1.892   1_556  S
O254        C264   1.262       .  A
O255        V260   1.895       .  S
O255        C265   1.262       .  A
O256        V261   1.908       .  S
O256        C265   1.266       .  A
O257        V261   1.912   1_556  S
O257        C264   1.267       .  A
O258        V261   1.912       .  S
O258        C263   1.266       .  A
O259        V261   1.897   1_556  S
O259        C262   1.262       .  A
V260        V261   2.088       .  T
C262       C2097   1.469       .  S
C263        C293   1.482       .  S
C264        C278   1.470       .  S
C265       C2192   1.473       .  S
O266        V274   1.904       .  S
O266        C276   1.266       .  A
O267        V274   1.905   1_545  S
O267        C277   1.265       .  A
O268        V274   1.909       .  S
O268        C278   1.265       .  A
O269        V274   1.904   1_545  S
O269        C279   1.264       .  A
O270        V275   1.900       .  S
O270        C279   1.263       .  A
O271        V275   1.896   1_565  S
O271        C278   1.264       .  A
O272        V275   1.900       .  S
O272        C277   1.264       .  A
O273        V275   1.899   1_565  S
O273        C276   1.264       .  A
V274        V275   2.088   1_565  T
C276       C1660   1.483       .  S
C277        C307   1.469       .  S
C279       C2615   1.471       .  S
C280       C1425   1.579       .  S
C280       C1436   1.576       .  S
C280       C1450   1.592       .  S
C280       C2178   1.579       .  S
O281        V289   1.907   1_565  S
O281        C291   1.266       .  A
O282        V289   1.908       .  S
O282        C292   1.266       .  A
O283        V289   1.906   1_565  S
O283        C293   1.265       .  A
O284        V289   1.891       .  S
O284        C294   1.263       .  A
O285        V290   1.900   1_545  S
O285        C294   1.265       .  A
O286        V290   1.916       .  S
O286        C293   1.268       .  A
O287        V290   1.909   1_545  S
O287        C292   1.266       .  A
O288        V290   1.910       .  S
O288        C291   1.265       .  A
V289        V290   2.086   1_545  T
C291       C1453   1.481       .  S
C292        C306   1.478       .  S
C294       C1408   1.479       .  S
O295        V303   1.905   1_556  S
O295        C305   1.265       .  A
O296        V303   1.912       .  S
O296        C306   1.267       .  A
O297        V303   1.902   1_556  S
O297        C307   1.264       .  A
O298        V303   1.896       .  S
O298        C308   1.263       .  A
O299        V304   1.907       .  S
O299        C308   1.264       .  A
O300        V304   1.902   1_556  S
O300        C307   1.265       .  A
O301        V304   1.906       .  S
O301        C306   1.265       .  A
O302        V304   1.891   1_556  S
O302        C305   1.262       .  A
V303        V304   2.088       .  T
C305       C1397   1.469       .  S
C308       C1380   1.471       .  S
C309       C1352   1.601       .  S
C309       C1366   1.596       .  S
C309       C1394   1.573       .  S
C309       C2601   1.582       .  S
C310       C1313   1.574       .  S
C310       C1324   1.585       .  S
C310       C1338   1.568       .  S
C310       C2685   1.579       .  S
C311       C1268   1.594       .  S
C311       C1282   1.570       .  S
C311       C1296   1.610       .  S
C311       C2108   1.571       .  S
O312        V320   1.888   1_455  S
O312        C322   1.263       .  A
O313        V320   1.890       .  S
O313        C323   1.261       .  A
O314        V320   1.898   1_455  S
O314        C324   1.264       .  A
O315        V320   1.893       .  S
O315        C325   1.263       .  A
O316        V321   1.898       .  S
O316        C325   1.263       .  A
O317        V321   1.905   1_455  S
O317        C324   1.264       .  A
O318        V321   1.907       .  S
O318        C323   1.266       .  A
O319        V321   1.912   1_455  S
O319        C322   1.268       .  A
V320        V321   2.087       .  T
C322       C2545   1.487       .  S
C323        C337   1.464       .  S
C324        C353   1.468       .  S
C325       C1688   1.474       .  S
O326        V334   1.898       .  S
O326        C336   1.264       .  A
O327        V334   1.901   1_556  S
O327        C337   1.263       .  A
O328        V334   1.908       .  S
O328        C338   1.266       .  A
O329        V334   1.902   1_556  S
O329        C339   1.266       .  A
O330        V335   1.900   1_556  S
O330        C339   1.264       .  A
O331        V335   1.901       .  S
O331        C338   1.265       .  A
O332        V335   1.896   1_556  S
O332        C337   1.264       .  A
O333        V335   1.893       .  S
O333        C336   1.264       .  A
V334        V335   2.087       .  T
C336       C2125   1.477       .  S
C338        C367   1.473       .  S
C339       C2041   1.484       .  S
C340       C1243   1.591       .  S
C340       C1254   1.593       .  S
C340       C2069   1.553       .  S
C340       C2531   1.571       .  S
O341        V349   1.896   1_556  S
O341        C351   1.261       .  A
O342        V349   1.899       .  S
O342        C352   1.264       .  A
O343        V349   1.908   1_556  S
O343        C353   1.266       .  A
O344        V349   1.899       .  S
O344        C354   1.267       .  A
O345        V350   1.889       .  S
O345        C354   1.261       .  A
O346        V350   1.894   1_556  S
O346        C353   1.262       .  A
O347        V350   1.904       .  S
O347        C352   1.264       .  A
O348        V350   1.889   1_556  S
O348        C351   1.266       .  A
V349        V350   2.087       .  T
C351       C1240   1.483       .  S
C352        C366   1.468       .  S
C354       C1226   1.481       .  S
O355        V363   1.906       .  S
O355        C365   1.265       .  A
O356        V363   1.907   1_455  S
O356        C366   1.266       .  A
O357        V363   1.901       .  S
O357        C367   1.264       .  A
O358        V363   1.900   1_455  S
O358        C368   1.264       .  A
O359        V364   1.904   1_455  S
O359        C368   1.266       .  A
O360        V364   1.909       .  S
O360        C367   1.266       .  A
O361        V364   1.895   1_455  S
O361        C366   1.263       .  A
O362        V364   1.891       .  S
O362        C365   1.261       .  A
V363        V364   2.088       .  T
C365       C1285   1.465       .  S
C368       C1327   1.487       .  S
C369       C1212   1.560       .  S
C369       C1229   1.580       .  S
C369       C1310   1.587       .  S
C369       C2153   1.589       .  S
O370        V378   1.910   1_556  S
O370        C380   1.267       .  A
O371        V378   1.916       .  S
O371        C381   1.269       .  A
O372        V378   1.897   1_556  S
O372        C382   1.262       .  A
O373        V378   1.895       .  S
O373        C383   1.263       .  A
O374        V379   1.915       .  S
O374        C383   1.269       .  A
O375        V379   1.911   1_556  S
O375        C382   1.268       .  A
O376        V379   1.895       .  S
O376        C381   1.262       .  A
O377        V379   1.879   1_556  S
O377        C380   1.260       .  A
V378        V379   2.086       .  T
C380       C1733   1.476       .  S
C381        C410   1.475       .  S
C382        C396   1.472       .  S
C383       C2447   1.489       .  S
O384        V392   1.907       .  S
O384        C394   1.265       .  A
O385        V392   1.906   1_455  S
O385        C395   1.266       .  A
O386        V392   1.903       .  S
O386        C396   1.263       .  A
O387        V392   1.894   1_455  S
O387        C397   1.263       .  A
O388        V393   1.900   1_455  S
O388        C397   1.265       .  A
O389        V393   1.905       .  S
O389        C396   1.266       .  A
O390        V393   1.904   1_455  S
O390        C395   1.265       .  A
O391        V393   1.907       .  S
O391        C394   1.265       .  A
V392        V393   2.087       .  T
C394       C1985   1.479       .  S
C395        C424   1.473       .  S
C397       C2248   1.479       .  S
O398        V406   1.909       .  S
O398        C408   1.267       .  A
O399        V406   1.911   1_455  S
O399        C409   1.267       .  A
O400        V406   1.908       .  S
O400        C410   1.264       .  A
O401        V406   1.898   1_455  S
O401        C411   1.265       .  A
O402        V407   1.903   1_455  S
O402        C411   1.265       .  A
O403        V407   1.904       .  S
O403        C410   1.266       .  A
O404        V407   1.892   1_455  S
O404        C409   1.261       .  A
O405        V407   1.887       .  S
O405        C408   1.263       .  A
V406        V407   2.086       .  T
C408       C1198   1.486       .  S
C409        C425   1.469       .  S
C411       C1184   1.488       .  S
C412       C1156   1.585       .  S
C412       C1170   1.580       .  S
C412       C1201   1.574       .  S
C412       C2433   1.601       .  S
O413        V421   1.897       .  S
O413        C423   1.266       .  A
O414        V421   1.906   1_556  S
O414        C424   1.266       .  A
O415        V421   1.905       .  S
O415        C425   1.264       .  A
O416        V421   1.902   1_556  S
O416        C426   1.266       .  A
O417        V422   1.902   1_556  S
O417        C426   1.266       .  A
O418        V422   1.899       .  S
O418        C425   1.265       .  A
O419        V422   1.903   1_556  S
O419        C424   1.264       .  A
O420        V422   1.899       .  S
O420        C423   1.263       .  A
V421        V422   2.086       .  T
C423       C1131   1.484       .  S
C426       C1145   1.489       .  S
C427       C1114   1.571       .  S
C427       C1142   1.579       .  S
C427       C1355   1.597       .  S
C427       C2237   1.599       .  S
C428       C1075   1.589       .  S
C428       C1089   1.567       .  S
C428       C1100   1.593       .  S
C428       C2209   1.586       .  S
C429       C1044   1.576       .  S
C429       C1058   1.577       .  S
C429       C1957   1.576       .  S
C429       C2643   1.554       .  S
O430        V438   1.895       .  S
O430        C440   1.263       .  A
O431        V438   1.896   1_455  S
O431        C441   1.263       .  A
O432        V438   1.903       .  S
O432        C442   1.264       .  A
O433        V438   1.894   1_455  S
O433        C443   1.264       .  A
O434        V439   1.896   1_455  S
O434        C443   1.263       .  A
O435        V439   1.903       .  S
O435        C442   1.265       .  A
O436        V439   1.910   1_455  S
O436        C441   1.266       .  A
O437        V439   1.910       .  S
O437        C440   1.267       .  A
V438        V439   2.087       .  T
C440       C1817   1.488       .  S
C441        C470   1.470       .  S
C442        C456   1.471       .  S
C443       C2374   1.477       .  S
O444        V452   1.895   1_565  S
O444        C454   1.265       .  A
O445        V452   1.900       .  S
O445        C455   1.265       .  A
O446        V452   1.899   1_565  S
O446        C456   1.263       .  A
O447        V452   1.890       .  S
O447        C457   1.261       .  A
O448        V453   1.900       .  S
O448        C457   1.263       .  A
O449        V453   1.907   1_565  S
O449        C456   1.266       .  A
O450        V453   1.903       .  S
O450        C455   1.264       .  A
O451        V453   1.899   1_565  S
O451        C454   1.264       .  A
V452        V453   2.089       .  T
C454       C1621   1.480       .  S
C455        C485   1.468       .  S
C457       C2657   1.461       .  S
C458       C1016   1.580       .  S
C458       C1030   1.593       .  S
C458       C1635   1.594       .  S
C458       C2360   1.569       .  S
O459        V467   1.900       .  S
O459        C469   1.266       .  A
O460        V467   1.910   1_565  S
O460        C470   1.266       .  A
O461        V467   1.900       .  S
O461        C471   1.263       .  A
O462        V467   1.897   1_565  S
O462        C472   1.263       .  A
O463        V468   1.906   1_565  S
O463        C472   1.265       .  A
O464        V468   1.904       .  S
O464        C471   1.266       .  A
O465        V468   1.896   1_565  S
O465        C470   1.263       .  A
O466        V468   1.890       .  S
O466        C469   1.262       .  A
V467        V468   2.088       .  T
C469       C1002   1.478       .  S
C471        C484   1.469       .  S
C472       C1019   1.471       .  S
O473        V481   1.899       .  S
O473        C483   1.267       .  A
O474        V481   1.905   1_455  S
O474        C484   1.266       .  A
O475        V481   1.897       .  S
O475        C485   1.263       .  A
O476        V481   1.889   1_455  S
O476        C486   1.262       .  A
O477        V482   1.903   1_455  S
O477        C486   1.266       .  A
O478        V482   1.905       .  S
O478        C485   1.265       .  A
O479        V482   1.899   1_455  S
O479        C484   1.263       .  A
O480        V482   1.893       .  S
O480        C483   1.262       .  A
V481        V482   2.086       .  T
C483       C1047   1.484       .  S
C486       C1086   1.480       .  S
C487        C988   1.565       .  S
C487       C1005   1.586       .  S
C487       C1072   1.595       .  S
C487       C2570   1.587       .  S
O488        V496   1.902   1_565  S
O488        C498   1.264       .  A
O489        V496   1.907       .  S
O489        C499   1.266       .  A
O490        V496   1.899   1_565  S
O490        C500   1.263       .  A
O491        V496   1.893       .  S
O491        C501   1.261       .  A
O492        V497   1.901       .  S
O492        C501   1.266       .  A
O493        V497   1.909   1_565  S
O493        C500   1.266       .  A
O494        V497   1.901       .  S
O494        C499   1.263       .  A
O495        V497   1.897   1_565  S
O495        C498   1.262       .  A
V496        V497   2.089       .  T
C498       C1873   1.468       .  S
C499        C527   1.471       .  S
C500        C514   1.471       .  S
C501       C2349   1.471       .  S
O502        V510   1.912       .  S
O502        C512   1.266       .  A
O503        V510   1.910   1_455  S
O503        C513   1.267       .  A
O504        V510   1.904       .  S
O504        C514   1.264       .  A
O505        V510   1.896   1_455  S
O505        C515   1.265       .  A
O506        V511   1.906   1_455  S
O506        C515   1.265       .  A
O507        V511   1.903       .  S
O507        C514   1.265       .  A
O508        V511   1.898   1_455  S
O508        C513   1.263       .  A
O509        V511   1.898       .  S
O509        C512   1.265       .  A
V510        V511   2.087       .  T
C512        C974   1.487       .  S
C513        C542   1.471       .  S
C515       C2727   1.482       .  S
O516        V524   1.895   1_455  S
O516        C526   1.265       .  A
O517        V524   1.908       .  S
O517        C527   1.267       .  A
O518        V524   1.891   1_455  S
O518        C528   1.262       .  A
O519        V524   1.897       .  S
O519        C529   1.261       .  A
O520        V525   1.902       .  S
O520        C529   1.266       .  A
O521        V525   1.909   1_455  S
O521        C528   1.266       .  A
O522        V525   1.900       .  S
O522        C527   1.263       .  A
O523        V525   1.891   1_455  S
O523        C526   1.260       .  A
V524        V525   2.089       .  T
C526        C946   1.466       .  S
C528        C544   1.466       .  S
C529        C960   1.466       .  S
C530        C935   1.570       .  S
C530        C963   1.583       .  S
C530       C1159   1.576       .  S
C530       C2335   1.569       .  S
O531        V539   1.900       .  S
O531        C541   1.264       .  A
O532        V539   1.904   1_565  S
O532        C542   1.264       .  A
O533        V539   1.889   1_565  S
O533        C543   1.263       .  A
O534        V539   1.892       .  S
O534        C544   1.263       .  A
O535        V540   1.907       .  S
O535        C544   1.265       .  A
O536        V540   1.905   1_565  S
O536        C543   1.265       .  A
O537        V540   1.903   1_565  S
O537        C542   1.265       .  A
O538        V540   1.899       .  S
O538        C541   1.265       .  A
V539        V540   2.086       .  T
C541        C907   1.483       .  S
C543        C918   1.485       .  S
C545        C890   1.576       .  S
C545        C921   1.591       .  S
C545       C1439   1.594       .  S
C545       C2713   1.586       .  S
C546        C848   1.569       .  S
C546        C862   1.598       .  S
C546        C876   1.582       .  S
C546        C949   1.572       .  S
C547        C820   1.558       .  S
C547        C837   1.581       .  S
C547        C851   1.566       .  S
C547        C904   1.572       .  S
O548        V556   1.894       .  S
O548        C558   1.264       .  A
O549        V556   1.901       .  S
O549        C559   1.264       .  A
O550        V556   1.898       .  S
O550        C560   1.263       .  A
O551        V556   1.897       .  S
O551        C561   1.265       .  A
O552        V557   1.899       .  S
O552        C561   1.264       .  A
O553        V557   1.902       .  S
O553        C560   1.265       .  A
O554        V557   1.911       .  S
O554        C559   1.267       .  A
O555        V557   1.910       .  S
O555        C558   1.266       .  A
V556        V557   2.086       .  T
C558       C1033   1.484       .  S
C559        C717   1.475       .  S
C561        C893   1.488       .  S
O562        V570   1.896       .  S
O562        C572   1.265       .  A
O563        V570   1.900       .  S
O563        C573   1.264       .  A
O564        V570   1.888       .  S
O564        C574   1.261       .  A
O565        V570   1.887       .  S
O565        C575   1.261       .  A
O566        V571   1.900       .  S
O566        C575   1.266       .  A
O567        V571   1.896       .  S
O567        C574   1.264       .  A
O568        V571   1.882       .  S
O568        C573   1.259       .  A
O569        V571   1.877       .  S
O569        C572   1.259       .  A
V570        V571   2.088       .  T
C572        C879   1.471       .  S
C574        C660   1.455       .  S
C575       C1103   1.485       .  S
O576        V584   1.906       .  S
O576        C586   1.267       .  A
O577        V584   1.909       .  S
O577        C587   1.267       .  A
O578        V584   1.898       .  S
O578        C588   1.263       .  A
O579        V584   1.899       .  S
O579        C589   1.263       .  A
O580        V585   1.899       .  S
O580        C589   1.265       .  A
O581        V585   1.904       .  S
O581        C588   1.265       .  A
O582        V585   1.910       .  S
O582        C587   1.265       .  A
O583        V585   1.903       .  S
O583        C586   1.265       .  A
V584        V585   2.085       .  T
C586        C834   1.494       .  S
C588        C690   1.468       .  S
C589        C991   1.480       .  S
O590        V598   1.899       .  S
O590        C600   1.263       .  A
O591        V598   1.902       .  S
O591        C601   1.264       .  A
O592        V598   1.912       .  S
O592        C602   1.267       .  A
O593        V598   1.909       .  S
O593        C603   1.266       .  A
O594        V599   1.895       .  S
O594        C603   1.261       .  A
O595        V599   1.893       .  S
O595        C602   1.262       .  A
O596        V599   1.909       .  S
O596        C601   1.267       .  A
O597        V599   1.903       .  S
O597        C600   1.267       .  A
V598        V599   2.087       .  T
C600       C1061   1.490       .  S
C601        C631   1.474       .  S
C603        C932   1.471       .  S
C604        C792   1.567       .  S
C604        C806   1.577       .  S
C604        C865   1.570       .  S
C604       C1187   1.575       .  S
C605        C764   1.580       .  S
C605        C781   1.560       .  S
C605        C795   1.566       .  S
C605       C1128   1.574       .  S
O606        V614   1.901       .  S
O606        C616   1.263       .  A
O607        V614   1.901       .  S
O607        C617   1.265       .  A
O608        V614   1.900       .  S
O608        C618   1.264       .  A
O609        V614   1.890       .  S
O609        C619   1.263       .  A
O610        V615   1.902       .  S
O610        C619   1.265       .  A
O611        V615   1.909       .  S
O611        C618   1.266       .  A
O612        V615   1.895       .  S
O612        C617   1.262       .  A
O613        V615   1.891       .  S
O613        C616   1.264       .  A
V614        V615   2.087       .  T
C616       C1215   1.480       .  S
C617        C703   1.463       .  S
C619        C778   1.478       .  S
O620        V628   1.902       .  S
O620        C630   1.265       .  A
O621        V628   1.904       .  S
O621        C631   1.264       .  A
O622        V628   1.906       .  S
O622        C632   1.266       .  A
O623        V628   1.909       .  S
O623        C633   1.266       .  A
O624        V629   1.901       .  S
O624        C633   1.264       .  A
O625        V629   1.905       .  S
O625        C632   1.264       .  A
O626        V629   1.908       .  S
O626        C631   1.266       .  A
O627        V629   1.914       .  S
O627        C630   1.268       .  A
V628        V629   2.086       .  T
C630       C1299   1.494       .  S
C633       C1173   1.483       .  S
O634        V642   1.909       .  S
O634        C644   1.267       .  A
O635        V642   1.911       .  S
O635        C645   1.267       .  A
O636        V642   1.899       .  S
O636        C646   1.262       .  A
O637        V642   1.893       .  S
O637        C647   1.261       .  A
O638        V643   1.914       .  S
O638        C647   1.268       .  A
O639        V643   1.915       .  S
O639        C646   1.269       .  A
O640        V643   1.878       .  S
O640        C645   1.259       .  A
O641        V643   1.877       .  S
O641        C644   1.256       .  A
V642        V643   2.089       .  T
C644       C1257   1.459       .  S
C645        C675   1.459       .  S
C647       C1117   1.478       .  S
O648        V656   1.904       .  S
O648        C658   1.266       .  A
O649        V656   1.904       .  S
O649        C659   1.265       .  A
O650        V656   1.891       .  S
O650        C660   1.261       .  A
O651        V656   1.891       .  S
O651        C661   1.263       .  A
O652        V657   1.900       .  S
O652        C661   1.264       .  A
O653        V657   1.893       .  S
O653        C660   1.263       .  A
O654        V657   1.906       .  S
O654        C659   1.265       .  A
O655        V657   1.909       .  S
O655        C658   1.266       .  A
V656        V657   2.088       .  T
C658        C809   1.492       .  S
C661       C1341   1.474       .  S
C662        C736   1.576       .  S
C662        C750   1.562       .  S
C662        C823   1.561       .  S
C662       C1411   1.561       .  S
C663        C722   1.600       .  S
C663        C739   1.563       .  S
C663        C767   1.599       .  S
C663       C1383   1.591       .  S
O664        V672   1.891       .  S
O664        C674   1.263       .  A
O665        V672   1.886       .  S
O665        C675   1.263       .  A
O666        V672   1.898       .  S
O666        C676   1.263       .  A
O667        V672   1.888       .  S
O667        C677   1.261       .  A
O668        V673   1.903       .  S
O668        C677   1.266       .  A
O669        V673   1.912       .  S
O669        C676   1.267       .  A
O670        V673   1.903       .  S
O670        C675   1.263       .  A
O671        V673   1.898       .  S
O671        C674   1.265       .  A
V672        V673   2.087       .  T
C674       C1509   1.481       .  S
C677       C1369   1.478       .  S
O678        V686   1.895       .  S
O678        C688   1.265       .  A
O679        V686   1.896       .  S
O679        C689   1.263       .  A
O680        V686   1.903       .  S
O680        C690   1.264       .  A
O681        V686   1.898       .  S
O681        C691   1.264       .  A
O682        V687   1.898       .  S
O682        C691   1.265       .  A
O683        V687   1.900       .  S
O683        C690   1.264       .  A
O684        V687   1.882       .  S
O684        C689   1.260       .  A
O685        V687   1.882       .  S
O685        C688   1.259       .  A
V686        V687   2.088       .  T
C688        C753   1.473       .  S
C691       C1579   1.480       .  S
O692        V700   1.902       .  S
O692        C702   1.264       .  A
O693        V700   1.899       .  S
O693        C703   1.264       .  A
O694        V700   1.909       .  S
O694        C704   1.266       .  A
O695        V700   1.913       .  S
O695        C705   1.267       .  A
O696        V701   1.898       .  S
O696        C705   1.265       .  A
O697        V701   1.896       .  S
O697        C704   1.263       .  A
O698        V701   1.896       .  S
O698        C703   1.263       .  A
O699        V701   1.891       .  S
O699        C702   1.264       .  A
V700        V701   2.087       .  T
C702       C1467   1.478       .  S
C705        C725   1.492       .  S
O706        V714   1.896       .  S
O706        C716   1.264       .  A
O707        V714   1.908       .  S
O707        C717   1.265       .  A
O708        V714   1.919       .  S
O708        C718   1.269       .  A
O709        V714   1.918       .  S
O709        C719   1.268       .  A
O710        V715   1.897       .  S
O710        C719   1.265       .  A
O711        V715   1.902       .  S
O711        C718   1.264       .  A
O712        V715   1.904       .  S
O712        C717   1.265       .  A
O713        V715   1.897       .  S
O713        C716   1.264       .  A
V714        V715   2.086       .  T
C716       C1537   1.479       .  S
C719       C1422   1.497       .  S
C720        C977   1.603       .  S
C720       C1271   1.569       .  S
C720       C1590   1.559       .  S
C720       C1831   1.582       .  S
C721        C722   1.428       .  A
C721        C726   1.410       .  A
C721        H728   1.076       .  S
C722        C723   1.437       .  A
C723        C724   1.403       .  A
C723        N730   1.427       .  S
C724        C725   1.395       .  A
C724        H729   1.085       .  S
C725        C726   1.414       .  A
C726        N727   1.440       .  S
N727        H731   1.046       .  S
N727        H732   1.040       .  S
N730        H733   1.045       .  S
N730        H734   1.046       .  S
C735        C736   1.418       .  A
C735        C740   1.409       .  A
C735        H742   1.079       .  S
C736        C737   1.418       .  A
C737        C738   1.395       .  A
C737        N744   1.429       .  S
C738        C739   1.411       .  A
C738        H743   1.081       .  S
C739        C740   1.425       .  A
C740        N741   1.432       .  S
N741        H745   1.046       .  S
N741        H746   1.045       .  S
N744        H747   1.046       .  S
N744        H748   1.046       .  S
C749        C750   1.415       .  A
C749        C754   1.390       .  A
C749        H756   1.084       .  S
C750        C751   1.432       .  A
C751        C752   1.399       .  A
C751        N758   1.432       .  S
C752        C753   1.397       .  A
C752        H757   1.084       .  S
C753        C754   1.411       .  A
C754        N755   1.433       .  S
N755        H759   1.045       .  S
N755        H760   1.046       .  S
N758        H761   1.046       .  S
N758        H762   1.046       .  S
C763        C764   1.418       .  A
C763        C768   1.416       .  A
C763        H770   1.077       .  S
C764        C765   1.429       .  A
C765        C766   1.390       .  A
C765        N772   1.433       .  S
C766        C767   1.404       .  A
C766        H771   1.075       .  S
C767        C768   1.429       .  A
C768        N769   1.436       .  S
N769        H773   1.046       .  S
N769        H774   1.045       .  S
N772        H775   1.038       .  S
N772        H776   1.041       .  S
C777        C778   1.399       .  A
C777        C782   1.401       .  A
C777        H784   1.084       .  S
C778        C779   1.406       .  A
C779        C780   1.403       .  A
C779        N786   1.438       .  S
C780        C781   1.420       .  A
C780        H785   1.083       .  S
C781        C782   1.428       .  A
C782        N783   1.432       .  S
N783        H787   1.045       .  S
N783        H788   1.046       .  S
N786        H789   1.045       .  S
N786        H790   1.046       .  S
C791        C792   1.413       .  A
C791        C796   1.401       .  A
C791        H798   1.083       .  S
C792        C793   1.428       .  A
C793        C794   1.401       .  A
C793        N800   1.432       .  S
C794        C795   1.411       .  A
C794        H799   1.080       .  S
C795        C796   1.422       .  A
C796        N797   1.432       .  S
N797        H801   1.046       .  S
N797        H802   1.045       .  S
N800        H803   1.046       .  S
N800        H804   1.046       .  S
C805        C806   1.421       .  A
C805        C810   1.400       .  A
C805        H812   1.084       .  S
C806        C807   1.437       .  A
C807        C808   1.412       .  A
C807        N814   1.437       .  S
C808        C809   1.400       .  A
C808        H813   1.084       .  S
C809        C810   1.411       .  A
C810        N811   1.432       .  S
N811        H815   1.045       .  S
N811        H816   1.046       .  S
N814        H817   1.042       .  S
N814        H818   1.046       .  S
C819        C820   1.409       .  A
C819        C824   1.396       .  A
C819        H826   1.084       .  S
C820        C821   1.427       .  A
C821        C822   1.399       .  A
C821        N828   1.433       .  S
C822        C823   1.410       .  A
C822        H827   1.078       .  S
C823        C824   1.422       .  A
C824        N825   1.431       .  S
N825        H829   1.046       .  S
N825        H830   1.046       .  S
N828        H831   1.046       .  S
N828        H832   1.046       .  S
C833        C834   1.401       .  A
C833        C838   1.405       .  A
C833        H840   1.084       .  S
C834        C835   1.415       .  A
C835        C836   1.402       .  A
C835        N842   1.433       .  S
C836        C837   1.419       .  A
C836        H841   1.079       .  S
C837        C838   1.427       .  A
C838        N839   1.431       .  S
N839        H843   1.046       .  S
N839        H844   1.046       .  S
N842        H845   1.046       .  S
N842        H846   1.045       .  S
C847        C848   1.405       .  A
C847        C852   1.389       .  A
C847        H854   1.081       .  S
C848        C849   1.431       .  A
C849        C850   1.404       .  A
C849        N856   1.433       .  S
C850        C851   1.411       .  A
C850        H855   1.078       .  S
C851        C852   1.432       .  A
C852        N853   1.433       .  S
N853        H857   1.041       .  S
N853        H858   1.040       .  S
N856        H859   1.046       .  S
N856        H860   1.046       .  S
C861        C862   1.410       .  A
C861        C866   1.398       .  A
C861        H868   1.074       .  S
C862        C863   1.426       .  A
C863        C864   1.410       .  A
C863        N870   1.434       .  S
C864        C865   1.414       .  A
C864        H869   1.075       .  S
C865        C866   1.418       .  A
C866        N867   1.430       .  S
N867        H871   1.046       .  S
N867        H872   1.046       .  S
N870        H873   1.046       .  S
N870        H874   1.046       .  S
C875        C876   1.417       .  A
C875        C880   1.395       .  A
C875        H882   1.068       .  S
C876        C877   1.441       .  A
C877        C878   1.400       .  A
C877        N884   1.429       .  S
C878        C879   1.391       .  A
C878        H883   1.085       .  S
C879        C880   1.403       .  A
C880        N881   1.440       .  S
N881        H885   1.046       .  S
N881        H886   1.046       .  S
N884        H887   1.046       .  S
N884        H888   1.046       .  S
C889        C890   1.423       .  A
C889        C894   1.397       .  A
C889        H896   1.083       .  S
C890        C891   1.427       .  A
C891        C892   1.403       .  A
C891        N898   1.431       .  S
C892        C893   1.402       .  A
C892        H897   1.084       .  S
C893        C894   1.413       .  A
C894        N895   1.433       .  S
N895        H899   1.045       .  S
N895        H900   1.045       .  S
N898        H901   1.045       .  S
N898        H902   1.046       .  S
C903        C904   1.419       .  A
C903        C908   1.404       .  A
C903        H910   1.083       .  S
C904        C905   1.431       .  A
C905        C906   1.403       .  A
C905        N912   1.431       .  S
C906        C907   1.399       .  A
C906        H911   1.084       .  S
C907        C908   1.408       .  A
C908        N909   1.438       .  S
N909        H913   1.046       .  S
N909        H914   1.045       .  S
N912        H915   1.046       .  S
N912        H916   1.046       .  S
C917        C918   1.404       .  A
C917        C922   1.412       .  A
C917        H924   1.084       .  S
C918        C919   1.408       .  A
C919        C920   1.388       .  A
C919        N926   1.434       .  S
C920        C921   1.420       .  A
C920        H925   1.078       .  S
C921        C922   1.429       .  A
C922        N923   1.430       .  S
N923        H927   1.046       .  S
N923        H928   1.045       .  S
N926        H929   1.045       .  S
N926        H930   1.045       .  S
C931        C932   1.398       .  A
C931        C936   1.405       .  A
C931        H938   1.084       .  S
C932        C933   1.406       .  A
C933        C934   1.396       .  A
C933        N940   1.440       .  S
C934        C935   1.423       .  A
C934        H939   1.077       .  S
C935        C936   1.436       .  A
C936        N937   1.434       .  S
N937        H941   1.042       .  S
N937        H942   1.041       .  S
N940        H943   1.042       .  S
N940        H944   1.046       .  S
C945        C946   1.389       .  A
C945        C950   1.398       .  A
C945        H952   1.084       .  S
C946        C947   1.408       .  A
C947        C948   1.399       .  A
C947        N954   1.433       .  S
C948        C949   1.414       .  A
C948        H953   1.081       .  S
C949        C950   1.434       .  A
C950        N951   1.433       .  S
N951        H955   1.046       .  S
N951        H956   1.045       .  S
N954        H957   1.045   1_455  S
N954        H958   1.045       .  S
C959        C960   1.406       .  A
C959        C964   1.417       .  A
C959        H966   1.083       .  S
C960        C961   1.398       .  A
C961        C962   1.385       .  A
C961        N968   1.441       .  S
C962        C963   1.418       .  A
C962        H967   1.062       .  S
C963        C964   1.427       .  A
C964        N965   1.433       .  S
N965        H969   1.044       .  S
N965        H970   1.045       .  S
N968        H971   1.042       .  S
N968        H972   1.046       .  S
C973        C974   1.399       .  A
C973        C978   1.415       .  A
C973        H980   1.084       .  S
C974        C975   1.403       .  A
C975        C976   1.403       .  A
C975        N982   1.440       .  S
C976        C977   1.420       .  A
C976        H981   1.064       .  S
C977        C978   1.439       .  A
C978        N979   1.437       .  S
N979        H983   1.046       .  S
N979        H984   1.046       .  S
N982        H985   1.046       .  S
N982        H986   1.046       .  S
C987        C988   1.418       .  A
C987        C992   1.391       .  A
C987        H994   1.084       .  S
C988        C989   1.427       .  A
C989        C990   1.412       .  A
C989        N996   1.435       .  S
C990        C991   1.404       .  A
C990        H995   1.084       .  S
C991        C992   1.407       .  A
C992        N993   1.433       .  S
N993        H997   1.046       .  S
N993        H998   1.045       .  S
N996        H999   1.045       .  S
N996       H1000   1.045       .  S
C1001      C1002   1.400       .  A
C1001      C1006   1.401       .  A
C1001      H1008   1.084       .  S
C1002      C1003   1.405       .  A
C1003      C1004   1.401       .  A
C1003      N1010   1.440       .  S
C1004      C1005   1.424       .  A
C1004      H1009   1.076       .  S
C1005      C1006   1.432       .  A
C1006      N1007   1.437       .  S
N1007      H1011   1.043       .  S
N1007      H1012   1.046       .  S
N1010      H1013   1.046       .  S
N1010      H1014   1.045       .  S
C1015      C1016   1.426       .  A
C1015      C1020   1.388       .  A
C1015      H1022   1.077       .  S
C1016      C1017   1.430       .  A
C1017      C1018   1.414       .  A
C1017      N1024   1.436       .  S
C1018      C1019   1.403       .  A
C1018      H1023   1.084       .  S
C1019      C1020   1.397       .  A
C1020      N1021   1.434       .  S
N1021      H1025   1.045       .  S
N1021      H1026   1.046       .  S
N1024      H1027   1.045       .  S
N1024      H1028   1.045       .  S
C1029      C1030   1.419       .  A
C1029      C1034   1.399       .  A
C1029      H1036   1.066       .  S
C1030      C1031   1.437       .  A
C1031      C1032   1.412       .  A
C1031      N1038   1.432       .  S
C1032      C1033   1.399       .  A
C1032      H1037   1.084       .  S
C1033      C1034   1.402       .  A
C1034      N1035   1.440       .  S
N1035      H1039   1.046       .  S
N1035      H1040   1.046       .  S
N1038      H1041   1.046       .  S
N1038      H1042   1.045       .  S
C1043      C1044   1.417       .  A
C1043      C1048   1.402       .  A
C1043      H1050   1.077       .  S
C1044      C1045   1.440       .  A
C1045      C1046   1.393       .  A
C1045      N1052   1.433       .  S
C1046      C1047   1.394       .  A
C1046      H1051   1.085       .  S
C1047      C1048   1.419       .  A
C1048      N1049   1.440       .  S
N1049      H1053   1.046       .  S
N1049      H1054   1.038       .  S
N1052      H1055   1.039       .  S
N1052      H1056   1.041       .  S
C1057      C1058   1.420       .  A
C1057      C1062   1.401       .  A
C1057      H1064   1.080       .  S
C1058      C1059   1.425       .  A
C1059      C1060   1.401       .  A
C1059      N1066   1.428       .  S
C1060      C1061   1.398       .  A
C1060      H1065   1.084       .  S
C1061      C1062   1.415       .  A
C1062      N1063   1.433       .  S
N1063      H1067   1.045       .  S
N1063      H1068   1.045       .  S
N1066      H1069   1.046       .  S
N1066      H1070   1.046       .  S
C1071      C1072   1.420       .  A
C1071      C1076   1.382       .  A
C1071      H1078   1.079       .  S
C1072      C1073   1.434       .  A
C1073      C1074   1.416       .  A
C1073      N1080   1.420       .  S
C1074      C1075   1.413       .  A
C1074      H1079   1.083       .  S
C1075      C1076   1.417       .  A
C1076      N1077   1.436       .  S
N1077      H1081   1.041       .  S
N1077      H1082   1.044       .  S
N1080      H1083   1.046       .  S
N1080      H1084   1.046       .  S
C1085      C1086   1.398       .  A
C1085      C1090   1.399       .  A
C1085      H1092   1.084       .  S
C1086      C1087   1.406       .  A
C1087      C1088   1.402       .  A
C1087      N1094   1.437       .  S
C1088      C1089   1.419       .  A
C1088      H1093   1.078       .  S
C1089      C1090   1.442       .  A
C1090      N1091   1.444       .  S
N1091      H1095   1.046       .  S
N1091      H1096   1.037       .  S
N1094      H1097   1.044   1_455  S
N1094      H1098   1.046       .  S
C1099      C1100   1.422       .  A
C1099      C1104   1.391       .  A
C1099      H1106   1.080       .  S
C1100      C1101   1.433       .  A
C1101      C1102   1.406       .  A
C1101      N1108   1.424       .  S
C1102      C1103   1.398       .  A
C1102      H1107   1.084       .  S
C1103      C1104   1.409       .  A
C1104      N1105   1.434       .  S
N1105      H1109   1.045       .  S
N1105      H1110   1.045       .  S
N1108      H1111   1.046       .  S
N1108      H1112   1.046       .  S
C1113      C1114   1.419       .  A
C1113      C1118   1.402       .  A
C1113      H1120   1.081       .  S
C1114      C1115   1.425       .  A
C1115      C1116   1.410       .  A
C1115      N1122   1.432       .  S
C1116      C1117   1.401       .  A
C1116      H1121   1.084       .  S
C1117      C1118   1.406       .  A
C1118      N1119   1.439       .  S
N1119      H1123   1.046       .  S
N1119      H1124   1.045       .  S
N1122      H1125   1.046       .  S
N1122      H1126   1.045       .  S
C1127      C1128   1.419       .  A
C1127      C1132   1.397       .  A
C1127      H1134   1.083       .  S
C1128      C1129   1.434       .  A
C1129      C1130   1.402       .  A
C1129      N1136   1.432       .  S
C1130      C1131   1.398       .  A
C1130      H1135   1.084       .  S
C1131      C1132   1.411       .  A
C1132      N1133   1.432       .  S
N1133      H1137   1.045       .  S
N1133      H1138   1.046       .  S
N1136      H1139   1.046       .  S
N1136      H1140   1.046       .  S
C1141      C1142   1.420       .  A
C1141      C1146   1.408       .  A
C1141      H1148   1.079       .  S
C1142      C1143   1.449       .  A
C1143      C1144   1.402       .  A
C1143      N1150   1.445       .  S
C1144      C1145   1.397       .  A
C1144      H1149   1.084       .  S
C1145      C1146   1.409       .  A
C1146      N1147   1.438       .  S
N1147      H1151   1.045       .  S
N1147      H1152   1.046       .  S
N1150      H1153   1.038       .  S
N1150      H1154   1.046       .  S
C1155      C1156   1.423       .  A
C1155      C1160   1.404       .  A
C1155      H1162   1.080       .  S
C1156      C1157   1.414       .  A
C1157      C1158   1.396       .  A
C1157      N1164   1.437       .  S
C1158      C1159   1.423       .  A
C1158      H1163   1.079       .  S
C1159      C1160   1.419       .  A
C1160      N1161   1.430       .  S
N1161      H1165   1.045       .  S
N1161      H1166   1.045       .  S
N1164      H1167   1.044       .  S
N1164      H1168   1.041       .  S
C1169      C1170   1.422       .  A
C1169      C1174   1.409       .  A
C1169      H1176   1.078       .  S
C1170      C1171   1.428       .  A
C1171      C1172   1.405       .  A
C1171      N1178   1.428       .  S
C1172      C1173   1.396       .  A
C1172      H1177   1.084       .  S
C1173      C1174   1.405       .  A
C1174      N1175   1.438       .  S
N1175      H1179   1.046       .  S
N1175      H1180   1.046       .  S
N1178      H1181   1.046       .  S
N1178      H1182   1.046       .  S
C1183      C1184   1.401       .  A
C1183      C1188   1.404       .  A
C1183      H1190   1.084       .  S
C1184      C1185   1.411       .  A
C1185      C1186   1.398       .  A
C1185      N1192   1.432       .  S
C1186      C1187   1.419       .  A
C1186      H1191   1.082       .  S
C1187      C1188   1.431       .  A
C1188      N1189   1.431       .  S
N1189      H1193   1.046       .  S
N1189      H1194   1.046       .  S
N1192      H1195   1.046       .  S
N1192      H1196   1.045       .  S
C1197      C1198   1.400       .  A
C1197      C1202   1.396       .  A
C1197      H1204   1.084       .  S
C1198      C1199   1.410       .  A
C1199      C1200   1.409       .  A
C1199      N1206   1.438       .  S
C1200      C1201   1.419       .  A
C1200      H1205   1.079       .  S
C1201      C1202   1.431       .  A
C1202      N1203   1.435       .  S
N1203      H1207   1.046       .  S
N1203      H1208   1.046       .  S
N1206      H1209   1.046       .  S
N1206      H1210   1.046       .  S
C1211      C1212   1.418       .  A
C1211      C1216   1.403       .  A
C1211      H1218   1.081       .  S
C1212      C1213   1.443       .  A
C1213      C1214   1.392       .  A
C1213      N1220   1.444       .  S
C1214      C1215   1.394       .  A
C1214      H1219   1.085       .  S
C1215      C1216   1.414       .  A
C1216      N1217   1.432       .  S
N1217      H1221   1.044       .  S
N1217      H1222   1.046       .  S
N1220      H1223   1.035       .  S
N1220      H1224   1.046       .  S
C1225      C1226   1.392       .  A
C1225      C1230   1.395       .  A
C1225      H1232   1.084       .  S
C1226      C1227   1.410       .  A
C1227      C1228   1.407       .  A
C1227      N1234   1.439       .  S
C1228      C1229   1.415       .  A
C1228      H1233   1.068       .  S
C1229      C1230   1.444       .  A
C1230      N1231   1.436       .  S
N1231      H1235   1.046       .  S
N1231      H1236   1.046       .  S
N1234      H1237   1.046       .  S
N1234      H1238   1.046       .  S
C1239      C1240   1.391       .  A
C1239      C1244   1.391       .  A
C1239      H1246   1.084       .  S
C1240      C1241   1.410       .  A
C1241      C1242   1.411       .  A
C1241      N1248   1.438       .  S
C1242      C1243   1.416       .  A
C1242      H1247   1.066       .  S
C1243      C1244   1.440       .  A
C1244      N1245   1.429       .  S
N1245      H1249   1.046       .  S
N1245      H1250   1.046       .  S
N1248      H1251   1.045       .  S
N1248      H1252   1.045       .  S
C1253      C1254   1.424       .  A
C1253      C1258   1.392       .  A
C1253      H1260   1.077       .  S
C1254      C1255   1.439       .  A
C1255      C1256   1.409       .  A
C1255      N1262   1.439       .  S
C1256      C1257   1.398       .  A
C1256      H1261   1.084       .  S
C1257      C1258   1.393       .  A
C1258      N1259   1.439       .  S
N1259      H1263   1.045       .  S
N1259      H1264   1.045       .  S
N1262      H1265   1.034       .  S
N1262      H1266   1.045       .  S
C1267      C1268   1.411       .  A
C1267      C1272   1.385       .  A
C1267      H1274   1.079       .  S
C1268      C1269   1.441       .  A
C1269      C1270   1.406       .  A
C1269      N1276   1.434       .  S
C1270      C1271   1.412       .  A
C1270      H1275   1.080       .  S
C1271      C1272   1.426       .  A
C1272      N1273   1.432       .  S
N1273      H1277   1.042       .  S
N1273      H1278   1.042       .  S
N1276      H1279   1.037       .  S
N1276      H1280   1.044       .  S
C1281      C1282   1.418       .  A
C1281      C1286   1.410       .  A
C1281      H1288   1.083       .  S
C1282      C1283   1.436       .  A
C1283      C1284   1.392       .  A
C1283      N1290   1.431       .  S
C1284      C1285   1.386       .  A
C1284      H1289   1.086       .  S
C1285      C1286   1.412       .  A
C1286      N1287   1.438       .  S
N1287      H1291   1.045       .  S
N1287      H1292   1.044       .  S
N1290      H1293   1.046       .  S
N1290      H1294   1.044       .  S
C1295      C1296   1.424       .  A
C1295      C1300   1.409       .  A
C1295      H1302   1.067       .  S
C1296      C1297   1.441       .  A
C1297      C1298   1.414       .  A
C1297      N1304   1.437       .  S
C1298      C1299   1.398       .  A
C1298      H1303   1.084       .  S
C1299      C1300   1.407       .  A
C1300      N1301   1.441       .  S
N1301      H1305   1.045       .  S
N1301      H1306   1.044       .  S
N1304      H1307   1.045       .  S
N1304      H1308   1.046       .  S
C1309      C1310   1.421       .  A
C1309      C1314   1.411       .  A
C1309      H1316   1.079       .  S
C1310      C1311   1.427       .  A
C1311      C1312   1.392       .  A
C1311      N1318   1.433       .  S
C1312      C1313   1.410       .  A
C1312      H1317   1.082       .  S
C1313      C1314   1.425       .  A
C1314      N1315   1.428       .  S
N1315      H1319   1.046       .  S
N1315      H1320   1.046       .  S
N1318      H1321   1.046       .  S
N1318      H1322   1.046       .  S
C1323      C1324   1.420       .  A
C1323      C1328   1.398       .  A
C1323      H1330   1.078       .  S
C1324      C1325   1.426       .  A
C1325      C1326   1.406       .  A
C1325      N1332   1.433       .  S
C1326      C1327   1.402       .  A
C1326      H1331   1.084       .  S
C1327      C1328   1.412       .  A
C1328      N1329   1.433       .  S
N1329      H1333   1.045       .  S
N1329      H1334   1.045       .  S
N1332      H1335   1.046       .  S
N1332      H1336   1.046       .  S
C1337      C1338   1.420       .  A
C1337      C1342   1.401       .  A
C1337      H1344   1.083       .  S
C1338      C1339   1.430       .  A
C1339      C1340   1.401       .  A
C1339      N1346   1.431       .  S
C1340      C1341   1.397       .  A
C1340      H1345   1.084       .  S
C1341      C1342   1.405       .  A
C1342      N1343   1.438       .  S
N1343      H1347   1.046       .  S
N1343      H1348   1.044       .  S
N1346      H1349   1.046       .  S
N1346      H1350   1.046       .  S
C1351      C1352   1.413       .  A
C1351      C1356   1.401       .  A
C1351      H1358   1.072       .  S
C1352      C1353   1.431       .  A
C1353      C1354   1.406       .  A
C1353      N1360   1.430       .  S
C1354      C1355   1.421       .  A
C1354      H1359   1.076       .  S
C1355      C1356   1.420       .  A
C1356      N1357   1.425       .  S
N1357      H1361   1.046       .  S
N1357      H1362   1.046       .  S
N1360      H1363   1.046       .  S
N1360      H1364   1.046       .  S
C1365      C1366   1.417       .  A
C1365      C1370   1.394       .  A
C1365      H1372   1.071       .  S
C1366      C1367   1.441       .  A
C1367      C1368   1.405       .  A
C1367      N1374   1.434       .  S
C1368      C1369   1.395       .  A
C1368      H1373   1.085       .  S
C1369      C1370   1.408       .  A
C1370      N1371   1.433       .  S
N1371      H1375   1.044       .  S
N1371      H1376   1.046       .  S
N1374      H1377   1.046       .  S
N1374      H1378   1.046       .  S
C1379      C1380   1.383       .  A
C1379      C1384   1.394       .  A
C1379      H1386   1.086       .  S
C1380      C1381   1.413       .  A
C1381      C1382   1.411       .  A
C1381      N1388   1.437       .  S
C1382      C1383   1.421       .  A
C1382      H1387   1.084       .  S
C1383      C1384   1.438       .  A
C1384      N1385   1.425       .  S
N1385      H1389   1.046       .  S
N1385      H1390   1.043       .  S
N1388      H1391   1.043       .  S
N1388      H1392   1.045       .  S
C1393      C1394   1.418       .  A
C1393      C1398   1.408       .  A
C1393      H1400   1.081       .  S
C1394      C1395   1.432       .  A
C1395      C1396   1.399       .  A
C1395      N1402   1.428       .  S
C1396      C1397   1.391       .  A
C1396      H1401   1.084       .  S
C1397      C1398   1.403       .  A
C1398      N1399   1.437       .  S
N1399      H1403   1.046       .  S
N1399      H1404   1.045       .  S
N1402      H1405   1.046       .  S
N1402      H1406   1.043       .  S
C1407      C1408   1.400       .  A
C1407      C1412   1.406       .  A
C1407      H1414   1.084       .  S
C1408      C1409   1.405       .  A
C1409      C1410   1.401       .  A
C1409      N1416   1.438       .  S
C1410      C1411   1.418       .  A
C1410      H1415   1.083       .  S
C1411      C1412   1.432       .  A
C1412      N1413   1.438       .  S
N1413      H1417   1.046       .  S
N1413      H1418   1.041       .  S
N1416      H1419   1.045       .  S
N1416      H1420   1.045       .  S
C1421      C1422   1.399       .  A
C1421      C1426   1.400       .  A
C1421      H1428   1.084       .  S
C1422      C1423   1.416       .  A
C1423      C1424   1.418       .  A
C1423      N1430   1.437       .  S
C1424      C1425   1.417       .  A
C1424      H1429   1.076       .  S
C1425      C1426   1.428       .  A
C1426      N1427   1.430       .  S
N1427      H1431   1.046       .  S
N1427      H1432   1.046       .  S
N1430      H1433   1.045       .  S
N1430      H1434   1.046       .  S
C1435      C1436   1.417       .  A
C1435      C1440   1.425       .  A
C1435      H1442   1.084       .  S
C1436      C1437   1.422       .  A
C1437      C1438   1.380       .  A
C1437      N1444   1.435       .  S
C1438      C1439   1.411       .  A
C1438      H1443   1.073       .  S
C1439      C1440   1.443       .  A
C1440      N1441   1.440       .  S
N1441      H1445   1.044       .  S
N1441      H1446   1.041       .  S
N1444      H1447   1.046       .  S
N1444      H1448   1.046       .  S
C1449      C1450   1.421       .  A
C1449      C1454   1.391       .  A
C1449      H1456   1.078       .  S
C1450      C1451   1.429       .  A
C1451      C1452   1.423       .  A
C1451      N1458   1.435       .  S
C1452      C1453   1.406       .  A
C1452      H1457   1.083       .  S
C1453      C1454   1.399       .  A
C1454      N1455   1.435       .  S
N1455      H1459   1.045       .  S
N1455      H1460   1.042       .  S
N1458      H1461   1.045       .  S
N1458      H1462   1.045       .  S
C1463      C1464   1.420       .  A
C1463      C1468   1.402       .  A
C1463      H1470   1.084       .  S
C1464      C1465   1.436       .  A
C1465      C1466   1.398       .  A
C1465      N1472   1.431       .  S
C1466      C1467   1.395       .  A
C1466      H1471   1.085       .  S
C1467      C1468   1.414       .  A
C1468      N1469   1.438       .  S
N1469      H1473   1.043       .  S
N1469      H1474   1.040       .  S
N1472      H1475   1.046       .  S
N1472      H1476   1.046       .  S
C1477      C1478   1.396       .  A
C1477      C1482   1.400       .  A
C1477      H1484   1.085       .  S
C1478      C1479   1.409       .  A
C1479      C1480   1.400       .  A
C1479      N1486   1.442       .  S
C1480      C1481   1.425       .  A
C1480      H1485   1.074       .  S
C1481      C1482   1.444       .  A
C1482      N1483   1.438       .  S
N1483      H1487   1.046       .  S
N1483      H1488   1.034       .  S
N1486      H1489   1.041       .  S
N1486      H1490   1.046       .  S
C1491      C1492   1.401       .  A
C1491      C1496   1.411       .  A
C1491      H1498   1.084       .  S
C1492      C1493   1.401       .  A
C1493      C1494   1.388       .  A
C1493      N1500   1.441       .  S
C1494      C1495   1.430       .  A
C1494      H1499   1.078       .  S
C1495      C1496   1.440       .  A
C1496      N1497   1.441       .  S
N1497      H1501   1.046       .  S
N1497      H1502   1.039       .  S
N1500      H1503   1.042       .  S
N1500      H1504   1.045       .  S
C1505      C1506   1.412       .  A
C1505      C1510   1.404       .  A
C1505      H1512   1.072       .  S
C1506      C1507   1.439       .  A
C1507      C1508   1.404       .  A
C1507      N1514   1.443       .  S
C1508      C1509   1.398       .  A
C1508      H1513   1.083       .  S
C1509      C1510   1.408       .  A
C1510      N1511   1.438       .  S
N1511      H1515   1.046       .  S
N1511      H1516   1.046       .  S
N1514      H1517   1.042       .  S
N1514      H1518   1.045       .  S
C1519      C1520   1.416       .  A
C1519      C1524   1.409       .  A
C1519      H1526   1.083       .  S
C1520      C1521   1.434       .  A
C1521      C1522   1.401       .  A
C1521      N1528   1.432       .  S
C1522      C1523   1.397       .  A
C1522      H1527   1.084       .  S
C1523      C1524   1.412       .  A
C1524      N1525   1.438       .  S
N1525      H1529   1.046       .  S
N1525      H1530   1.045       .  S
N1528      H1531   1.046       .  S
N1528      H1532   1.046       .  S
C1533      C1534   1.419       .  A
C1533      C1538   1.401       .  A
C1533      H1540   1.076       .  S
C1534      C1535   1.438       .  A
C1535      C1536   1.396       .  A
C1535      N1542   1.434       .  S
C1536      C1537   1.396       .  A
C1536      H1541   1.085       .  S
C1537      C1538   1.414       .  A
C1538      N1539   1.441       .  S
N1539      H1543   1.046       .  S
N1539      H1544   1.042       .  S
N1542      H1545   1.041       .  S
N1542      H1546   1.039       .  S
C1547      C1548   1.418       .  A
C1547      C1552   1.399       .  A
C1547      H1554   1.075       .  S
C1548      C1549   1.432       .  A
C1549      C1550   1.394       .  A
C1549      N1556   1.435       .  S
C1550      C1551   1.412       .  A
C1550      H1555   1.084       .  S
C1551      C1552   1.421       .  A
C1552      N1553   1.433       .  S
N1553      H1557   1.046       .  S
N1553      H1558   1.046       .  S
N1556      H1559   1.038       .  S
N1556      H1560   1.045       .  S
C1561      C1562   1.396       .  A
C1561      C1566   1.402       .  A
C1561      H1568   1.085       .  S
C1562      C1563   1.408       .  A
C1563      C1564   1.398       .  A
C1563      N1570   1.432       .  S
C1564      C1565   1.423       .  A
C1564      H1569   1.084       .  S
C1565      C1566   1.436       .  A
C1566      N1567   1.431       .  S
N1567      H1571   1.046       .  S
N1567      H1572   1.046       .  S
N1570      H1573   1.046       .  S
N1570      H1574   1.045       .  S
C1575      C1576   1.419       .  A
C1575      C1580   1.403       .  A
C1575      H1582   1.084       .  S
C1576      C1577   1.430       .  A
C1577      C1578   1.403       .  A
C1577      N1584   1.431       .  S
C1578      C1579   1.399       .  A
C1578      H1583   1.084       .  S
C1579      C1580   1.408       .  A
C1580      N1581   1.438       .  S
N1581      H1585   1.046       .  S
N1581      H1586   1.045       .  S
N1584      H1587   1.046       .  S
N1584      H1588   1.046       .  S
C1589      C1590   1.419       .  A
C1589      C1594   1.390       .  A
C1589      H1596   1.079       .  S
C1590      C1591   1.427       .  A
C1591      C1592   1.406       .  A
C1591      N1598   1.436       .  S
C1592      C1593   1.399       .  A
C1592      H1597   1.084       .  S
C1593      C1594   1.406       .  A
C1594      N1595   1.440       .  S
N1595      H1599   1.042       .  S
N1595      H1600   1.041       .  S
N1598      H1601   1.045       .  S
N1598      H1602   1.044       .  S
C1603      C1604   1.415       .  A
C1603      C1608   1.414       .  A
C1603      H1610   1.079       .  S
C1604      C1605   1.428       .  A
C1605      C1606   1.393       .  A
C1605      N1612   1.429       .  S
C1606      C1607   1.392       .  A
C1606      H1611   1.085       .  S
C1607      C1608   1.422       .  A
C1608      N1609   1.439       .  S
N1609      H1613   1.046       .  S
N1609      H1614   1.042       .  S
N1612      H1615   1.043       .  S
N1612      H1616   1.046       .  S
C1617      C1618   1.424       .  A
C1617      C1622   1.395       .  A
C1617      H1624   1.083       .  S
C1618      C1619   1.430       .  A
C1619      C1620   1.414       .  A
C1619      N1626   1.435       .  S
C1620      C1621   1.406       .  A
C1620      H1625   1.084       .  S
C1621      C1622   1.403       .  A
C1622      N1623   1.439       .  S
N1623      H1627   1.046       .  S
N1623      H1628   1.046       .  S
N1626      H1629   1.042       .  S
N1626      H1630   1.045       .  S
C1631      C1632   1.421       .  A
C1631      C1636   1.416       .  A
C1631      H1638   1.077       .  S
C1632      C1633   1.430       .  A
C1633      C1634   1.387       .  A
C1633      N1640   1.436       .  S
C1634      C1635   1.406       .  A
C1634      H1639   1.077       .  S
C1635      C1636   1.425       .  A
C1636      N1637   1.438       .  S
N1637      H1641   1.046       .  S
N1637      H1642   1.044       .  S
N1640      H1643   1.039       .  S
N1640      H1644   1.043       .  S
C1645      C1646   1.420       .  A
C1645      C1650   1.400       .  A
C1645      H1652   1.077       .  S
C1646      C1647   1.437       .  A
C1647      C1648   1.400       .  A
C1647      N1654   1.435       .  S
C1648      C1649   1.398       .  A
C1648      H1653   1.084       .  S
C1649      C1650   1.414       .  A
C1650      N1651   1.441       .  S
N1651      H1655   1.046       .  S
N1651      H1656   1.041       .  S
N1654      H1657   1.041       .  S
N1654      H1658   1.043       .  S
C1659      C1660   1.398       .  A
C1659      C1664   1.403       .  A
C1659      H1666   1.084       .  S
C1660      C1661   1.408       .  A
C1661      C1662   1.407       .  A
C1661      N1668   1.439       .  S
C1662      C1663   1.420       .  A
C1662      H1667   1.078       .  S
C1663      C1664   1.429       .  A
C1664      N1665   1.434       .  S
N1665      H1669   1.046       .  S
N1665      H1670   1.044       .  S
N1668      H1671   1.046       .  S
N1668      H1672   1.045       .  S
C1673      C1674   1.422       .  A
C1673      C1678   1.401       .  A
C1673      H1680   1.075       .  S
C1674      C1675   1.432       .  A
C1675      C1676   1.407       .  A
C1675      N1682   1.435       .  S
C1676      C1677   1.399       .  A
C1676      H1681   1.084       .  S
C1677      C1678   1.405       .  A
C1678      N1679   1.440       .  S
N1679      H1683   1.046       .  S
N1679      H1684   1.045       .  S
N1682      H1685   1.046       .  S
N1682      H1686   1.041       .  S
C1687      C1688   1.396       .  A
C1687      C1692   1.401       .  A
C1687      H1694   1.084       .  S
C1688      C1689   1.404       .  A
C1689      C1690   1.400       .  A
C1689      N1696   1.439       .  S
C1690      C1691   1.421       .  A
C1690      H1695   1.075       .  S
C1691      C1692   1.441       .  A
C1692      N1693   1.441       .  S
N1693      H1697   1.045       .  S
N1693      H1698   1.038       .  S
N1696      H1699   1.045       .  S
N1696      H1700   1.046       .  S
C1701      C1702   1.406       .  A
C1701      C1706   1.391       .  A
C1701      H1708   1.076       .  S
C1702      C1703   1.425       .  A
C1703      C1704   1.412       .  A
C1703      N1710   1.429       .  S
C1704      C1705   1.424       .  A
C1704      H1709   1.079       .  S
C1705      C1706   1.433       .  A
C1706      N1707   1.431       .  S
N1707      H1711   1.042       .  S
N1707      H1712   1.044       .  S
N1710      H1713   1.045       .  S
N1710      H1714   1.045       .  S
C1715      C1716   1.416       .  A
C1715      C1720   1.406       .  A
C1715      H1722   1.082       .  S
C1716      C1717   1.439       .  A
C1717      C1718   1.395       .  A
C1717      N1724   1.431       .  S
C1718      C1719   1.391       .  A
C1718      H1723   1.085       .  S
C1719      C1720   1.413       .  A
C1720      N1721   1.439       .  S
N1721      H1725   1.046       .  S
N1721      H1726   1.043       .  S
N1724      H1727   1.043       .  S
N1724      H1728   1.039       .  S
C1729      C1730   1.436       .  A
C1729      C1734   1.397       .  A
C1729      H1736   1.075       .  S
C1730      C1731   1.442       .  A
C1731      C1732   1.401       .  A
C1731      N1738   1.427       .  S
C1732      C1733   1.391       .  A
C1732      H1737   1.085       .  S
C1733      C1734   1.399       .  A
C1734      N1735   1.434       .  S
N1735      H1739   1.045       .  S
N1735      H1740   1.046       .  S
N1738      H1741   1.045       .  S
N1738      H1742   1.045       .  S
C1743      C1744   1.413       .  A
C1743      C1748   1.406       .  A
C1743      H1750   1.072       .  S
C1744      C1745   1.431       .  A
C1745      C1746   1.396       .  A
C1745      N1752   1.431       .  S
C1746      C1747   1.392       .  A
C1746      H1751   1.085       .  S
C1747      C1748   1.406       .  A
C1748      N1749   1.436       .  S
N1749      H1753   1.046       .  S
N1749      H1754   1.045       .  S
N1752      H1755   1.046       .  S
N1752      H1756   1.046       .  S
C1757      C1758   1.422       .  A
C1757      C1762   1.401       .  A
C1757      H1764   1.070       .  S
C1758      C1759   1.433       .  A
C1759      C1760   1.399       .  A
C1759      N1766   1.431       .  S
C1760      C1761   1.393       .  A
C1760      H1765   1.084       .  S
C1761      C1762   1.411       .  A
C1762      N1763   1.438       .  S
N1763      H1767   1.046       .  S
N1763      H1768   1.041       .  S
N1766      H1769   1.046       .  S
N1766      H1770   1.046       .  S
C1771      C1772   1.404       .  A
C1771      C1776   1.379       .  A
C1771      H1778   1.075       .  S
C1772      C1773   1.425       .  A
C1773      C1774   1.421       .  A
C1773      N1780   1.431       .  S
C1774      C1775   1.417       .  A
C1774      H1779   1.073       .  S
C1775      C1776   1.430       .  A
C1776      N1777   1.436       .  S
N1777      H1781   1.043       .  S
N1777      H1782   1.038       .  S
N1780      H1783   1.045       .  S
N1780      H1784   1.045       .  S
C1785      C1786   1.411       .  A
C1785      C1790   1.394       .  A
C1785      H1792   1.082       .  S
C1786      C1787   1.421       .  A
C1787      C1788   1.406       .  A
C1787      N1794   1.431       .  S
C1788      C1789   1.416       .  A
C1788      H1793   1.080       .  S
C1789      C1790   1.421       .  A
C1790      N1791   1.434       .  S
N1791      H1795   1.046       .  S
N1791      H1796   1.046       .  S
N1794      H1797   1.046       .  S
N1794      H1798   1.046       .  S
C1799      C1800   1.417       .  A
C1799      C1804   1.387       .  A
C1799      H1806   1.071       .  S
C1800      C1801   1.425       .  A
C1801      C1802   1.416       .  A
C1801      N1808   1.437       .  S
C1802      C1803   1.404       .  A
C1802      H1807   1.084       .  S
C1803      C1804   1.404       .  A
C1804      N1805   1.441       .  S
N1805      H1809   1.046       .  S
N1805      H1810   1.041       .  S
N1808      H1811   1.044       .  S
N1808      H1812   1.045       .  S
C1813      C1814   1.420       .  A
C1813      C1818   1.402       .  A
C1813      H1820   1.082       .  S
C1814      C1815   1.426       .  A
C1815      C1816   1.413       .  A
C1815      N1822   1.435       .  S
C1816      C1817   1.404       .  A
C1816      H1821   1.084       .  S
C1817      C1818   1.410       .  A
C1818      N1819   1.439       .  S
N1819      H1823   1.046       .  S
N1819      H1824   1.046       .  S
N1822      H1825   1.044       .  S
N1822      H1826   1.045       .  S
C1827      C1828   1.405       .  A
C1827      C1832   1.412       .  A
C1827      H1834   1.079       .  S
C1828      C1829   1.420       .  A
C1829      C1830   1.389       .  A
C1829      N1836   1.432       .  S
C1830      C1831   1.406       .  A
C1830      H1835   1.078       .  S
C1831      C1832   1.438       .  A
C1832      N1833   1.432       .  S
N1833      H1837   1.045       .  S
N1833      H1838   1.046       .  S
N1836      H1839   1.046       .  S
N1836      H1840   1.046       .  S
C1841      C1842   1.409       .  A
C1841      C1846   1.386       .  A
C1841      H1848   1.085       .  S
C1842      C1843   1.417       .  A
C1843      C1844   1.409       .  A
C1843      N1850   1.431       .  S
C1844      C1845   1.422       .  A
C1844      H1849   1.075       .  S
C1845      C1846   1.433       .  A
C1846      N1847   1.435       .  S
N1847      H1851   1.042       .  S
N1847      H1852   1.040       .  S
N1850      H1853   1.046       .  S
N1850      H1854   1.046       .  S
C1855      C1856   1.425       .  A
C1855      C1860   1.390       .  A
C1855      H1862   1.078       .  S
C1856      C1857   1.420       .  A
C1857      C1858   1.413       .  A
C1857      N1864   1.431       .  S
C1858      C1859   1.405       .  A
C1858      H1863   1.084       .  S
C1859      C1860   1.404       .  A
C1860      N1861   1.441       .  S
N1861      H1865   1.046       .  S
N1861      H1866   1.042       .  S
N1864      H1867   1.046       .  S
N1864      H1868   1.045       .  S
C1869      C1870   1.411       .  A
C1869      C1874   1.401       .  A
C1869      H1876   1.083       .  S
C1870      C1871   1.438       .  A
C1871      C1872   1.396       .  A
C1871      N1878   1.432       .  S
C1872      C1873   1.387       .  A
C1872      H1877   1.085       .  S
C1873      C1874   1.411       .  A
C1874      N1875   1.432       .  S
N1875      H1879   1.045       .  S
N1875      H1880   1.043       .  S
N1878      H1881   1.046       .  S
N1878      H1882   1.044       .  S
C1883      C1884   1.406       .  A
C1883      C1888   1.382       .  A
C1883      H1890   1.063       .  S
C1884      C1885   1.433       .  A
C1885      C1886   1.423       .  A
C1885      N1892   1.436       .  S
C1886      C1887   1.416       .  A
C1886      H1891   1.074       .  S
C1887      C1888   1.429       .  A
C1888      N1889   1.433       .  S
N1889      H1893   1.037       .  S
N1889      H1894   1.040       .  S
N1892      H1895   1.045       .  S
N1892      H1896   1.045       .  S
C1897      C1898   1.417       .  A
C1897      C1902   1.378       .  A
C1897      H1904   1.079       .  S
C1898      C1899   1.436       .  A
C1899      C1900   1.426       .  A
C1899      N1906   1.439       .  S
C1900      C1901   1.419       .  A
C1900      H1905   1.077       .  S
C1901      C1902   1.428       .  A
C1902      N1903   1.438       .  S
N1903      H1907   1.043       .  S
N1903      H1908   1.036       .  S
N1906      H1909   1.041       .  S
N1906      H1910   1.045       .  S
C1911      C1912   1.414       .  A
C1911      C1916   1.413       .  A
C1911      H1918   1.080       .  S
C1912      C1913   1.428       .  A
C1913      C1914   1.394       .  A
C1913      N1920   1.433       .  S
C1914      C1915   1.397       .  A
C1914      H1919   1.084       .  S
C1915      C1916   1.416       .  A
C1916      N1917   1.437       .  S
N1917      H1921   1.046       .  S
N1917      H1922   1.045       .  S
N1920      H1923   1.046       .  S
N1920      H1924   1.042       .  S
C1925      C1926   1.415       .  A
C1925      C1930   1.408       .  A
C1925      H1932   1.072       .  S
C1926      C1927   1.449       .  A
C1927      C1928   1.393       .  A
C1927      N1934   1.438       .  S
C1928      C1929   1.396       .  A
C1928      H1933   1.084       .  S
C1929      C1930   1.415       .  A
C1930      N1931   1.432       .  S
N1931      H1935   1.045       .  S
N1931      H1936   1.046       .  S
N1934      H1937   1.042       .  S
N1934      H1938   1.042       .  S
C1939      C1940   1.412       .  A
C1939      C1944   1.413       .  A
C1939      H1946   1.081       .  S
C1940      C1941   1.431       .  A
C1941      C1942   1.401       .  A
C1941      N1948   1.442       .  S
C1942      C1943   1.401       .  A
C1942      H1947   1.078       .  S
C1943      C1944   1.441       .  A
C1944      N1945   1.438       .  S
N1945      H1949   1.045       .  S
N1945      H1950   1.038       .  S
N1948      H1951   1.043       .  S
N1948      H1952   1.045       .  S
C1953      C1954   1.430       .  A
C1953      C1958   1.394       .  A
C1953      H1960   1.077       .  S
C1954      C1955   1.438       .  A
C1955      C1956   1.402       .  A
C1955      N1962   1.421       .  S
C1956      C1957   1.409       .  A
C1956      H1961   1.084       .  S
C1957      C1958   1.431       .  A
C1958      N1959   1.437       .  S
N1959      H1963   1.041       .  S
N1959      H1964   1.039       .  S
N1962      H1965   1.042       .  S
N1962      H1966   1.043       .  S
C1967      C1968   1.421       .  A
C1967      C1972   1.395       .  A
C1967      H1974   1.077       .  S
C1968      C1969   1.426       .  A
C1969      C1970   1.415       .  A
C1969      N1976   1.436       .  S
C1970      C1971   1.403       .  A
C1970      H1975   1.084       .  S
C1971      C1972   1.408       .  A
C1972      N1973   1.441       .  S
N1973      H1977   1.046       .  S
N1973      H1978   1.042       .  S
N1976      H1979   1.045       .  S
N1976      H1980   1.046       .  S
C1981      C1982   1.415       .  A
C1981      C1986   1.412       .  A
C1981      H1988   1.070       .  S
C1982      C1983   1.444       .  A
C1983      C1984   1.403       .  A
C1983      N1990   1.431       .  S
C1984      C1985   1.388       .  A
C1984      H1989   1.085       .  S
C1985      C1986   1.412       .  A
C1986      N1987   1.438       .  S
N1987      H1991   1.045       .  S
N1987      H1992   1.044       .  S
N1990      H1993   1.046       .  S
N1990      H1994   1.041       .  S
C1995      C1996   1.420       .  A
C1995      C2000   1.389       .  A
C1995      H2002   1.081       .  S
C1996      C1997   1.425       .  A
C1997      C1998   1.409       .  A
C1997      N2004   1.440       .  S
C1998      C1999   1.416       .  A
C1998      H2003   1.069       .  S
C1999      C2000   1.427       .  A
C2000      N2001   1.438       .  S
N2001      H2005   1.045       .  S
N2001      H2006   1.039       .  S
N2004      H2007   1.042       .  S
N2004      H2008   1.045       .  S
C2009      C2010   1.404       .  A
C2009      C2014   1.389       .  A
C2009      H2016   1.057       .  S
C2010      C2011   1.438       .  A
C2011      C2012   1.413       .  A
C2011      N2018   1.429       .  S
C2012      C2013   1.409       .  A
C2012      H2017   1.077       .  S
C2013      C2014   1.435       .  A
C2014      N2015   1.438       .  S
N2015      H2019   1.045       .  S
N2015      H2020   1.026       .  S
N2018      H2021   1.046       .  S
N2018      H2022   1.046       .  S
C2023      C2024   1.412       .  A
C2023      C2028   1.413       .  A
C2023      H2030   1.073       .  S
C2024      C2025   1.443       .  A
C2025      C2026   1.399       .  A
C2025      N2032   1.438       .  S
C2026      C2027   1.399       .  A
C2026      H2031   1.084       .  S
C2027      C2028   1.414       .  A
C2028      N2029   1.438       .  S
N2029      H2033   1.046       .  S
N2029      H2034   1.045       .  S
N2032      H2035   1.041       .  S
N2032      H2036   1.043       .  S
C2037      C2038   1.418       .  A
C2037      C2042   1.400       .  A
C2037      H2044   1.083       .  S
C2038      C2039   1.421       .  A
C2039      C2040   1.409       .  A
C2039      N2046   1.430       .  S
C2040      C2041   1.406       .  A
C2040      H2045   1.084       .  S
C2041      C2042   1.408       .  A
C2042      N2043   1.439       .  S
N2043      H2047   1.046       .  S
N2043      H2048   1.045       .  S
N2046      H2049   1.046       .  S
N2046      H2050   1.046       .  S
C2051      C2052   1.416       .  A
C2051      C2056   1.397       .  A
C2051      H2058   1.076       .  S
C2052      C2053   1.436       .  A
C2053      C2054   1.400       .  A
C2053      N2060   1.440       .  S
C2054      C2055   1.415       .  A
C2054      H2059   1.084       .  S
C2055      C2056   1.433       .  A
C2056      N2057   1.438       .  S
N2057      H2061   1.045       .  S
N2057      H2062   1.029       .  S
N2060      H2063   1.033       .  S
N2060      H2064   1.046       .  S
C2065      C2066   1.415       .  A
C2065      C2070   1.385       .  A
C2065      H2072   1.078       .  S
C2066      C2067   1.427       .  A
C2067      C2068   1.412       .  A
C2067      N2074   1.435       .  S
C2068      C2069   1.415       .  A
C2068      H2073   1.082       .  S
C2069      C2070   1.414       .  A
C2070      N2071   1.436       .  S
N2071      H2075   1.045       .  S
N2071      H2076   1.046       .  S
N2074      H2077   1.036       .  S
N2074      H2078   1.045       .  S
C2079      C2080   1.415       .  A
C2079      C2084   1.410       .  A
C2079      H2086   1.079       .  S
C2080      C2081   1.436       .  A
C2081      C2082   1.389       .  A
C2081      N2088   1.425       .  S
C2082      C2083   1.389       .  A
C2082      H2087   1.085       .  S
C2083      C2084   1.420       .  A
C2084      N2085   1.438       .  S
N2085      H2089   1.046       .  S
N2085      H2090   1.039       .  S
N2088      H2091   1.041       .  S
N2088      H2092   1.039       .  S
C2093      C2094   1.426       .  A
C2093      C2098   1.398       .  A
C2093      H2100   1.076       .  S
C2094      C2095   1.435       .  A
C2095      C2096   1.406       .  A
C2095      N2102   1.428       .  S
C2096      C2097   1.393       .  A
C2096      H2101   1.085       .  S
C2097      C2098   1.404       .  A
C2098      N2099   1.440       .  S
N2099      H2103   1.046       .  S
N2099      H2104   1.043       .  S
N2102      H2105   1.046       .  S
N2102      H2106   1.046       .  S
C2107      C2108   1.409       .  A
C2107      C2112   1.406       .  A
C2107      H2114   1.079       .  S
C2108      C2109   1.431       .  A
C2109      C2110   1.391       .  A
C2109      N2116   1.431       .  S
C2110      C2111   1.407       .  A
C2110      H2115   1.084       .  S
C2111      C2112   1.436       .  A
C2112      N2113   1.431       .  S
N2113      H2117   1.046       .  S
N2113      H2118   1.046       .  S
N2116      H2119   1.040       .  S
N2116      H2120   1.042       .  S
C2121      C2122   1.419       .  A
C2121      C2126   1.402       .  A
C2121      H2128   1.083       .  S
C2122      C2123   1.428       .  A
C2123      C2124   1.401       .  A
C2123      N2130   1.431       .  S
C2124      C2125   1.399       .  A
C2124      H2129   1.084       .  S
C2125      C2126   1.405       .  A
C2126      N2127   1.438       .  S
N2127      H2131   1.046       .  S
N2127      H2132   1.046       .  S
N2130      H2133   1.046       .  S
N2130      H2134   1.046       .  S
C2135      C2136   1.419       .  A
C2135      C2140   1.405       .  A
C2135      H2142   1.084       .  S
C2136      C2137   1.436       .  A
C2137      C2138   1.402       .  A
C2137      N2144   1.439       .  S
C2138      C2139   1.397       .  A
C2138      H2143   1.084       .  S
C2139      C2140   1.408       .  A
C2140      N2141   1.438       .  S
N2141      H2145   1.046       .  S
N2141      H2146   1.045       .  S
N2144      H2147   1.044       .  S
N2144      H2148   1.046       .  S
C2149      C2150   1.409       .  A
C2149      C2154   1.371       .  A
C2149      H2156   1.073       .  S
C2150      C2151   1.435       .  A
C2151      C2152   1.427       .  A
C2151      N2158   1.436       .  S
C2152      C2153   1.416       .  A
C2152      H2157   1.083       .  S
C2153      C2154   1.422       .  A
C2154      N2155   1.437       .  S
N2155      H2159   1.043       .  S
N2155      H2160   1.043       .  S
N2158      H2161   1.042       .  S
N2158      H2162   1.045       .  S
C2163      C2164   1.403       .  A
C2163      C2168   1.407       .  A
C2163      H2170   1.084       .  S
C2164      C2165   1.410       .  A
C2165      C2166   1.403       .  A
C2165      N2172   1.438       .  S
C2166      C2167   1.422       .  A
C2166      H2171   1.083       .  S
C2167      C2168   1.424       .  A
C2168      N2169   1.432       .  S
N2169      H2173   1.046       .  S
N2169      H2174   1.046       .  S
N2172      H2175   1.046       .  S
N2172      H2176   1.046       .  S
C2177      C2178   1.413       .  A
C2177      C2182   1.390       .  A
C2177      H2184   1.084       .  S
C2178      C2179   1.432       .  A
C2179      C2180   1.420       .  A
C2179      N2186   1.436       .  S
C2180      C2181   1.412       .  A
C2180      H2185   1.080       .  S
C2181      C2182   1.417       .  A
C2182      N2183   1.432       .  S
N2183      H2187   1.046       .  S
N2183      H2188   1.045       .  S
N2186      H2189   1.042       .  S
N2186      H2190   1.046       .  S
C2191      C2192   1.401       .  A
C2191      C2196   1.414       .  A
C2191      H2198   1.083       .  S
C2192      C2193   1.398       .  A
C2193      C2194   1.400       .  A
C2193      N2200   1.439       .  S
C2194      C2195   1.421       .  A
C2194      H2199   1.080       .  S
C2195      C2196   1.424       .  A
C2196      N2197   1.438       .  S
N2197      H2201   1.045       .  S
N2197      H2202   1.044       .  S
N2200      H2203   1.044       .  S
N2200      H2204   1.045       .  S
C2205      C2206   1.408       .  A
C2205      C2210   1.395       .  A
C2205      H2212   1.084       .  S
C2206      C2207   1.421       .  A
C2207      C2208   1.409       .  A
C2207      N2214   1.431       .  S
C2208      C2209   1.418       .  A
C2208      H2213   1.078       .  S
C2209      C2210   1.426       .  A
C2210      N2211   1.428       .  S
N2211      H2215   1.046       .  S
N2211      H2216   1.046       .  S
N2214      H2217   1.046       .  S
N2214      H2218   1.046       .  S
C2219      C2220   1.420       .  A
C2219      C2224   1.401       .  A
C2219      H2226   1.083       .  S
C2220      C2221   1.442       .  A
C2221      C2222   1.396       .  A
C2221      N2228   1.431       .  S
C2222      C2223   1.390       .  A
C2222      H2227   1.085       .  S
C2223      C2224   1.410       .  A
C2224      N2225   1.438       .  S
N2225      H2229   1.045       .  S
N2225      H2230   1.042       .  S
N2228      H2231   1.046       .  S
N2228      H2232   1.046       .  S
C2233      C2234   1.414       .  A
C2233      C2238   1.390       .  A
C2233      H2240   1.081       .  S
C2234      C2235   1.431       .  A
C2235      C2236   1.418       .  A
C2235      N2242   1.423       .  S
C2236      C2237   1.415       .  A
C2236      H2241   1.068       .  S
C2237      C2238   1.425       .  A
C2238      N2239   1.439       .  S
N2239      H2243   1.045       .  S
N2239      H2244   1.046       .  S
N2242      H2245   1.046       .  S
N2242      H2246   1.046       .  S
C2247      C2248   1.398       .  A
C2247      C2252   1.401       .  A
C2247      H2254   1.084       .  S
C2248      C2249   1.409       .  A
C2249      C2250   1.394       .  A
C2249      N2256   1.434       .  S
C2250      C2251   1.420       .  A
C2250      H2255   1.077       .  S
C2251      C2252   1.445       .  A
C2252      N2253   1.443       .  S
N2253      H2257   1.045       .  S
N2253      H2258   1.039       .  S
N2256      H2259   1.046       .  S
N2256      H2260   1.044       .  S
C2261      C2262   1.407       .  A
C2261      C2266   1.386       .  A
C2261      H2268   1.082       .  S
C2262      C2263   1.440       .  A
C2263      C2264   1.399       .  A
C2263      N2270   1.435       .  S
C2264      C2265   1.408       .  A
C2264      H2269   1.080       .  S
C2265      C2266   1.431       .  A
C2266      N2267   1.437       .  S
N2267      H2271   1.042       .  S
N2267      H2272   1.042       .  S
N2270      H2273   1.039       .  S
N2270      H2274   1.041       .  S
C2275      C2276   1.417       .  A
C2275      C2280   1.404       .  A
C2275      H2282   1.077       .  S
C2276      C2277   1.434       .  A
C2277      C2278   1.404       .  A
C2277      N2284   1.432       .  S
C2278      C2279   1.399       .  A
C2278      H2283   1.084       .  S
C2279      C2280   1.409       .  A
C2280      N2281   1.438       .  S
N2281      H2285   1.046       .  S
N2281      H2286   1.045       .  S
N2284      H2287   1.046       .  S
N2284      H2288   1.046       .  S
C2289      C2290   1.423       .  A
C2289      C2294   1.404       .  A
C2289      H2296   1.084       .  S
C2290      C2291   1.441       .  A
C2291      C2292   1.396       .  A
C2291      N2298   1.434       .  S
C2292      C2293   1.399       .  A
C2292      H2297   1.085       .  S
C2293      C2294   1.414       .  A
C2294      N2295   1.440       .  S
N2295      H2299   1.046       .  S
N2295      H2300   1.040       .  S
N2298      H2301   1.041       .  S
N2298      H2302   1.043       .  S
C2303      C2304   1.410       .  A
C2303      C2308   1.394       .  A
C2303      H2310   1.082       .  S
C2304      C2305   1.432       .  A
C2305      C2306   1.404       .  A
C2305      N2312   1.435       .  S
C2306      C2307   1.413       .  A
C2306      H2311   1.074       .  S
C2307      C2308   1.435       .  A
C2308      N2309   1.433       .  S
N2309      H2313   1.042       .  S
N2309      H2314   1.040       .  S
N2312      H2315   1.046       .  S
N2312      H2316   1.046       .  S
C2317      C2318   1.423       .  A
C2317      C2322   1.395       .  A
C2317      H2324   1.080       .  S
C2318      C2319   1.437       .  A
C2319      C2320   1.404       .  A
C2319      N2326   1.431       .  S
C2320      C2321   1.394       .  A
C2320      H2325   1.085       .  S
C2321      C2322   1.406       .  A
C2322      N2323   1.439       .  S
N2323      H2327   1.045       .  S
N2323      H2328   1.041       .  S
N2326      H2329   1.046       .  S
N2326      H2330   1.046       .  S
C2331      C2332   1.412       .  A
C2331      C2336   1.416       .  A
C2331      H2338   1.078       .  S
C2332      C2333   1.429       .  A
C2333      C2334   1.388       .  A
C2333      N2340   1.425       .  S
C2334      C2335   1.407       .  A
C2334      H2339   1.085       .  S
C2335      C2336   1.421       .  A
C2336      N2337   1.436       .  S
N2337      H2341   1.045       .  S
N2337      H2342   1.045       .  S
N2340      H2343   1.040       .  S
N2340      H2344   1.041       .  S
C2345      C2346   1.404       .  A
C2345      C2350   1.399       .  A
C2345      H2352   1.077       .  S
C2346      C2347   1.427       .  A
C2347      C2348   1.401       .  A
C2347      N2354   1.425       .  S
C2348      C2349   1.392       .  A
C2348      H2353   1.084       .  S
C2349      C2350   1.414       .  A
C2350      N2351   1.436       .  S
N2351      H2355   1.044       .  S
N2351      H2356   1.040       .  S
N2354      H2357   1.039       .  S
N2354      H2358   1.046       .  S
C2359      C2360   1.414       .  A
C2359      C2364   1.393       .  A
C2359      H2366   1.079       .  S
C2360      C2361   1.432       .  A
C2361      C2362   1.402       .  A
C2361      N2368   1.431       .  S
C2362      C2363   1.414       .  A
C2362      H2367   1.080       .  S
C2363      C2364   1.416       .  A
C2364      N2365   1.433       .  S
N2365      H2369   1.046       .  S
N2365      H2370   1.045       .  S
N2368      H2371   1.040       .  S
N2368      H2372   1.043       .  S
C2373      C2374   1.398       .  A
C2373      C2378   1.401       .  A
C2373      H2380   1.084       .  S
C2374      C2375   1.404       .  A
C2375      C2376   1.399       .  A
C2375      N2382   1.433       .  S
C2376      C2377   1.416       .  A
C2376      H2381   1.083       .  S
C2377      C2378   1.432       .  A
C2378      N2379   1.432       .  S
N2379      H2383   1.046       .  S
N2379      H2384   1.046       .  S
N2382      H2385   1.046       .  S
N2382      H2386   1.045       .  S
C2387      C2388   1.417       .  A
C2387      C2392   1.398       .  A
C2387      H2394   1.083       .  S
C2388      C2389   1.443       .  A
C2389      C2390   1.400       .  A
C2389      N2396   1.434       .  S
C2390      C2391   1.399       .  A
C2390      H2395   1.084       .  S
C2391      C2392   1.413       .  A
C2392      N2393   1.433       .  S
N2393      H2397   1.045       .  S
N2393      H2398   1.045       .  S
N2396      H2399   1.041       .  S
N2396      H2400   1.040       .  S
C2401      C2402   1.416       .  A
C2401      C2406   1.396       .  A
C2401      H2408   1.082       .  S
C2402      C2403   1.424       .  A
C2403      C2404   1.407       .  A
C2403      N2410   1.435       .  S
C2404      C2405   1.418       .  A
C2404      H2409   1.074       .  S
C2405      C2406   1.432       .  A
C2406      N2407   1.436       .  S
N2407      H2411   1.045       .  S
N2407      H2412   1.038       .  S
N2410      H2413   1.031       .  S
N2410      H2414   1.043       .  S
C2415      C2416   1.417       .  A
C2415      C2420   1.399       .  A
C2415      H2422   1.080       .  S
C2416      C2417   1.424       .  A
C2417      C2418   1.413       .  A
C2417      N2424   1.430       .  S
C2418      C2419   1.405       .  A
C2418      H2423   1.084       .  S
C2419      C2420   1.406       .  A
C2420      N2421   1.439       .  S
N2421      H2425   1.045       .  S
N2421      H2426   1.045       .  S
N2424      H2427   1.046       .  S
N2424      H2428   1.046       .  S
C2429      C2430   1.419       .  A
C2429      C2434   1.422       .  A
C2429      H2436   1.079       .  S
C2430      C2431   1.426       .  A
C2431      C2432   1.383       .  A
C2431      N2438   1.436       .  S
C2432      C2433   1.411       .  A
C2432      H2437   1.072       .  S
C2433      C2434   1.443       .  A
C2434      N2435   1.443       .  S
N2435      H2439   1.044       .  S
N2435      H2440   1.039       .  S
N2438      H2441   1.046       .  S
N2438      H2442   1.046       .  S
C2443      C2444   1.419       .  A
C2443      C2448   1.405       .  A
C2443      H2450   1.082       .  S
C2444      C2445   1.420       .  A
C2445      C2446   1.411       .  A
C2445      N2452   1.432       .  S
C2446      C2447   1.406       .  A
C2446      H2451   1.084       .  S
C2447      C2448   1.412       .  A
C2448      N2449   1.438       .  S
N2449      H2453   1.046       .  S
N2449      H2454   1.045       .  S
N2452      H2455   1.044       .  S
N2452      H2456   1.045       .  S
C2457      C2458   1.408       .  A
C2457      C2462   1.410       .  A
C2457      H2464   1.080       .  S
C2458      C2459   1.446       .  A
C2459      C2460   1.396       .  A
C2459      N2466   1.441       .  S
C2460      C2461   1.411       .  A
C2460      H2465   1.079       .  S
C2461      C2462   1.428       .  A
C2462      N2463   1.426       .  S
N2463      H2467   1.046       .  S
N2463      H2468   1.046       .  S
N2466      H2469   1.024       .  S
N2466      H2470   1.047       .  S
C2471      C2472   1.414       .  A
C2471      C2476   1.404       .  A
C2471      H2478   1.072       .  S
C2472      C2473   1.427       .  A
C2473      C2474   1.400       .  A
C2473      N2480   1.430       .  S
C2474      C2475   1.409       .  A
C2474      H2479   1.082       .  S
C2475      C2476   1.426       .  A
C2476      N2477   1.432       .  S
N2477      H2481   1.046       .  S
N2477      H2482   1.046       .  S
N2480      H2483   1.046       .  S
N2480      H2484   1.046       .  S
C2485      C2486   1.426       .  A
C2485      C2490   1.398       .  A
C2485      H2492   1.081       .  S
C2486      C2487   1.429       .  A
C2487      C2488   1.406       .  A
C2487      N2494   1.425       .  S
C2488      C2489   1.396       .  A
C2488      H2493   1.083       .  S
C2489      C2490   1.406       .  A
C2490      N2491   1.440       .  S
N2491      H2495   1.045       .  S
N2491      H2496   1.042       .  S
N2494      H2497   1.046       .  S
N2494      H2498   1.046       .  S
C2499      C2500   1.390       .  A
C2499      C2504   1.394       .  A
C2499      H2506   1.085       .  S
C2500      C2501   1.413       .  A
C2501      C2502   1.404       .  A
C2501      N2508   1.438       .  S
C2502      C2503   1.415       .  A
C2502      H2507   1.078       .  S
C2503      C2504   1.442       .  A
C2504      N2505   1.437       .  S
N2505      H2509   1.046       .  S
N2505      H2510   1.028       .  S
N2508      H2511   1.043       .  S
N2508      H2512   1.045       .  S
C2513      C2514   1.409       .  A
C2513      C2518   1.403       .  A
C2513      H2520   1.074       .  S
C2514      C2515   1.429       .  A
C2515      C2516   1.396       .  A
C2515      N2522   1.441       .  S
C2516      C2517   1.407       .  A
C2516      H2521   1.075       .  S
C2517      C2518   1.424       .  A
C2518      N2519   1.433       .  S
N2519      H2523   1.045       .  S
N2519      H2524   1.046       .  S
N2522      H2525   1.044       .  S
N2522      H2526   1.046       .  S
C2527      C2528   1.412       .  A
C2527      C2532   1.408       .  A
C2527      H2534   1.083       .  S
C2528      C2529   1.429       .  A
C2529      C2530   1.389       .  A
C2529      N2536   1.434       .  S
C2530      C2531   1.409       .  A
C2530      H2535   1.074       .  S
C2531      C2532   1.432       .  A
C2532      N2533   1.431       .  S
N2533      H2537   1.041       .  S
N2533      H2538   1.042       .  S
N2536      H2539   1.046       .  S
N2536      H2540   1.046       .  S
C2541      C2542   1.415       .  A
C2541      C2546   1.410       .  A
C2541      H2548   1.076       .  S
C2542      C2543   1.432       .  A
C2543      C2544   1.401       .  A
C2543      N2550   1.441       .  S
C2544      C2545   1.400       .  A
C2544      H2549   1.083       .  S
C2545      C2546   1.411       .  A
C2546      N2547   1.437       .  S
N2547      H2551   1.046       .  S
N2547      H2552   1.046       .  S
N2550      H2553   1.043       .  S
N2550      H2554   1.045       .  S
C2555      C2556   1.425       .  A
C2555      C2560   1.388       .  A
C2555      H2562   1.079       .  S
C2556      C2557   1.423       .  A
C2557      C2558   1.415       .  A
C2557      N2564   1.437       .  S
C2558      C2559   1.404       .  A
C2558      H2563   1.084       .  S
C2559      C2560   1.403       .  A
C2560      N2561   1.441       .  S
N2561      H2565   1.046       .  S
N2561      H2566   1.042       .  S
N2564      H2567   1.044       .  S
N2564      H2568   1.045       .  S
C2569      C2570   1.424       .  A
C2569      C2574   1.404       .  A
C2569      H2576   1.070       .  S
C2570      C2571   1.431       .  A
C2571      C2572   1.398       .  A
C2571      N2578   1.437       .  S
C2572      C2573   1.412       .  A
C2572      H2577   1.085       .  S
C2573      C2574   1.413       .  A
C2574      N2575   1.437       .  S
N2575      H2579   1.045       .  S
N2575      H2580   1.045       .  S
N2578      H2581   1.046       .  S
N2578      H2582   1.046       .  S
C2583      C2584   1.416       .  A
C2583      C2588   1.410       .  A
C2583      H2590   1.083       .  S
C2584      C2585   1.441       .  A
C2585      C2586   1.391       .  A
C2585      N2592   1.433       .  S
C2586      C2587   1.383       .  A
C2586      H2591   1.086       .  S
C2587      C2588   1.412       .  A
C2588      N2589   1.437       .  S
N2589      H2593   1.046       .  S
N2589      H2594   1.044       .  S
N2592      H2595   1.046       .  S
N2592      H2596   1.043       .  S
C2597      C2598   1.411       .  A
C2597      C2602   1.402       .  A
C2597      H2604   1.065       .  S
C2598      C2599   1.439       .  A
C2599      C2600   1.402       .  A
C2599      N2606   1.433       .  S
C2600      C2601   1.409       .  A
C2600      H2605   1.080       .  S
C2601      C2602   1.429       .  A
C2602      N2603   1.427       .  S
N2603      H2607   1.042       .  S
N2603      H2608   1.042       .  S
N2606      H2609   1.046       .  S
N2606      H2610   1.046       .  S
C2611      C2612   1.421       .  A
C2611      C2616   1.398       .  A
C2611      H2618   1.073       .  S
C2612      C2613   1.427       .  A
C2613      C2614   1.408       .  A
C2613      N2620   1.429       .  S
C2614      C2615   1.397       .  A
C2614      H2619   1.084       .  S
C2615      C2616   1.405       .  A
C2616      N2617   1.439       .  S
N2617      H2621   1.046       .  S
N2617      H2622   1.043       .  S
N2620      H2623   1.046       .  S
N2620      H2624   1.046       .  S
C2625      C2626   1.407       .  A
C2625      C2630   1.391       .  A
C2625      H2632   1.077       .  S
C2626      C2627   1.426       .  A
C2627      C2628   1.410       .  A
C2627      N2634   1.433       .  S
C2628      C2629   1.415       .  A
C2628      H2633   1.076       .  S
C2629      C2630   1.416       .  A
C2630      N2631   1.432       .  S
N2631      H2635   1.046       .  S
N2631      H2636   1.045       .  S
N2634      H2637   1.045       .  S
N2634      H2638   1.046       .  S
C2639      C2640   1.411       .  A
C2639      C2644   1.386       .  A
C2639      H2646   1.083       .  S
C2640      C2641   1.431       .  A
C2641      C2642   1.399       .  A
C2641      N2648   1.431       .  S
C2642      C2643   1.412       .  A
C2642      H2647   1.078       .  S
C2643      C2644   1.427       .  A
C2644      N2645   1.435       .  S
N2645      H2649   1.042       .  S
N2645      H2650   1.041       .  S
N2648      H2651   1.040       .  S
N2648      H2652   1.041       .  S
C2653      C2654   1.423       .  A
C2653      C2658   1.394       .  A
C2653      H2660   1.077       .  S
C2654      C2655   1.428       .  A
C2655      C2656   1.408       .  A
C2655      N2662   1.435       .  S
C2656      C2657   1.400       .  A
C2656      H2661   1.084       .  S
C2657      C2658   1.397       .  A
C2658      N2659   1.440       .  S
N2659      H2663   1.045       .  S
N2659      H2664   1.045       .  S
N2662      H2665   1.045       .  S
N2662      H2666   1.045       .  S
C2667      C2668   1.416       .  A
C2667      C2672   1.391       .  A
C2667      H2674   1.063       .  S
C2668      C2669   1.441       .  A
C2669      C2670   1.408       .  A
C2669      N2676   1.439       .  S
C2670      C2671   1.395       .  A
C2670      H2675   1.084       .  S
C2671      C2672   1.398       .  A
C2672      N2673   1.441       .  S
N2673      H2677   1.046       .  S
N2673      H2678   1.046       .  S
N2676      H2679   1.044       .  S
N2676      H2680   1.046       .  S
C2681      C2682   1.418       .  A
C2681      C2686   1.404       .  A
C2681      H2688   1.083       .  S
C2682      C2683   1.432       .  A
C2683      C2684   1.397       .  A
C2683      N2690   1.432       .  S
C2684      C2685   1.415       .  A
C2684      H2689   1.077       .  S
C2685      C2686   1.432       .  A
C2686      N2687   1.441       .  S
N2687      H2691   1.046       .  S
N2687      H2692   1.036       .  S
N2690      H2693   1.040       .  S
N2690      H2694   1.043       .  S
C2695      C2696   1.395       .  A
C2695      C2700   1.401       .  A
C2695      H2702   1.084       .  S
C2696      C2697   1.407       .  A
C2697      C2698   1.405       .  A
C2697      N2704   1.438       .  S
C2698      C2699   1.419       .  A
C2698      H2703   1.082       .  S
C2699      C2700   1.433       .  A
C2700      N2701   1.431       .  S
N2701      H2705   1.046       .  S
N2701      H2706   1.046       .  S
N2704      H2707   1.044       .  S
N2704      H2708   1.046       .  S
C2709      C2710   1.418       .  A
C2709      C2714   1.415       .  A
C2709      H2716   1.075       .  S
C2710      C2711   1.429       .  A
C2711      C2712   1.389       .  A
C2711      N2718   1.434       .  S
C2712      C2713   1.409       .  A
C2712      H2717   1.067       .  S
C2713      C2714   1.427       .  A
C2714      N2715   1.437       .  S
N2715      H2719   1.046       .  S
N2715      H2720   1.045       .  S
N2718      H2721   1.041       .  S
N2718      H2722   1.042       .  S
C2723      C2724   1.421       .  A
C2723      C2728   1.407       .  A
C2723      H2730   1.084       .  S
C2724      C2725   1.435       .  A
C2725      C2726   1.402       .  A
C2725      N2732   1.430       .  S
C2726      C2727   1.396       .  A
C2726      H2731   1.084       .  S
C2727      C2728   1.406       .  A
C2728      N2729   1.438       .  S
N2729      H2733   1.046       .  S
N2729      H2734   1.046       .  S
N2732      H2735   1.046       .  S
N2732      H2736   1.046       .  S
