geometry optimzed in LAMMPS
_audit_creation_date              2020-11-30 
_audit_creation_method            'lammps2cif' 
_symmetry_space_group_name_H-M    'P1' 
_symmetry_Int_Tables_number       1 
_symmetry_cell_setting            triclinic 
loop_ 
_symmetry_equiv_pos_as_xyz 
  x,y,z 
_cell_length_a                    34.05994555065795 
_cell_length_b                    34.69591718087044 
_cell_length_c                    34.654094777522 
_cell_angle_alpha                 91.24737650010503 
_cell_angle_beta                  89.64930326739808 
_cell_angle_gamma                 90.03743838774449 
loop_ 
_atom_site_label 
_atom_site_type_symbol 
_atom_site_fract_x 
_atom_site_fract_y 
_atom_site_fract_z 
_atom_site_charge 
O1          O  0.61290639  0.93070232  0.26880801    -0.86490
O2          O  0.45713183  0.08561071  0.25306600    -0.86650
O3          O  0.57528860  0.04163709  0.20483185    -0.88320
O4          O  0.56304019  0.04912840  0.32776954    -0.87080
O5          O  0.52914546  0.01391586  0.37215344    -0.86670
O6          O  0.54095047  0.01156109  0.15561024    -0.88040
O7          O  0.52455112  0.08718905  0.25367872    -0.86520
O8          O  0.61560450  0.99687930  0.26998451    -0.86100
Zr9        Zr  0.54763202  0.02070076  0.26480439     2.84310
O10         O  0.48995004  0.02115586  0.30179399    -1.08080
O11         O  0.54863766  0.96518630  0.22468089    -1.08810
C12         C  0.63144841  0.96298360  0.27178040     1.06620
C13         C  0.49039826  0.10282336  0.24853320     1.06570
C14         C  0.56679500  0.03568699  0.16912551     1.09550
C15         C  0.55296190  0.04108470  0.36265742     1.07330
H16         H  0.49401989  0.04030606  0.20759649     0.32890
O17         O  0.49327472  0.01834904  0.22410085    -1.29030
H18         H  0.56778510  0.96589670  0.31967005     0.32560
O19         O  0.54546374  0.96571432  0.30264021    -1.30710
O20         O  0.36740534  0.99808190  0.26336375    -0.86480
O21         O  0.52227030  0.84391413  0.25232542    -0.87980
O22         O  0.45315970  0.01345338  0.15244968    -0.86560
O23         O  0.44617473  0.01559204  0.37020664    -0.86610
O24         O  0.53575627  0.92432677  0.37126628    -0.86320
O25         O  0.54660523  0.92243256  0.15449087    -0.86120
O26         O  0.41304994  0.88836731  0.19751534    -0.86490
O27         O  0.41229493  0.88616410  0.32108954    -0.85960
O28         O  0.44808387  0.91992397  0.15066361    -0.87020
O29         O  0.44153775  0.92196598  0.36945249    -0.86180
O30         O  0.41485998  0.04260750  0.19941753    -0.86580
O31         O  0.57629434  0.88941892  0.20307159    -0.86300
O32         O  0.56494813  0.88623519  0.32414994    -0.85950
O33         O  0.41495653  0.04799998  0.32207801    -0.86360
O34         O  0.36679172  0.93203975  0.26201337    -0.86650
O35         O  0.45487488  0.84362382  0.25381562    -0.87990
Zr36       Zr  0.43568322  0.01950324  0.26092790     2.83100
Zr37       Zr  0.54537906  0.91030956  0.26260247     2.83500
Zr38       Zr  0.49473702  0.96465869  0.18282493     2.84090
Zr39       Zr  0.48821978  0.96625306  0.33991628     2.83360
Zr40       Zr  0.43498038  0.91081608  0.25986901     2.84220
O41         O  0.48898605  0.90994047  0.30110913    -1.08560
O42         O  0.43658537  0.96482118  0.22029461    -1.08060
C43         C  0.34965302  0.96518824  0.26472480     1.06590
C44         C  0.48848235  0.82707807  0.24900481     1.09210
C45         C  0.42692923  0.03818585  0.16435559     1.06770
C46         C  0.42300324  0.04202613  0.35771544     1.07130
C47         C  0.55947440  0.89737107  0.35939246     1.06710
C48         C  0.57213729  0.89810427  0.16744890     1.06260
C49         C  0.42190605  0.89540498  0.16225996     1.06690
C50         C  0.41800241  0.89522633  0.35690264     1.06200
H51         H  0.49249290  0.88809783  0.20425226     0.32880
O52         O  0.49180871  0.91043076  0.22132286    -1.29660
H53         H  0.40994050  0.96632242  0.31599530     0.32900
O54         O  0.43329502  0.96577376  0.30006135    -1.31050
C55         C  0.48135883  0.67503596  0.17662808     0.03130
C56         C  0.44632912  0.65312597  0.17347248    -0.13020
C57         C  0.44577452  0.61854687  0.15115295     0.00630
C58         C  0.47947666  0.60781190  0.13057853    -0.11540
C59         C  0.51433328  0.62817833  0.13412444     0.03120
C60         C  0.51564565  0.66123959  0.15783390    -0.10960
H61         H  0.41967814  0.66321758  0.18749396     0.08720
H62         H  0.47894341  0.58262237  0.11161395     0.06250
H63         H  0.54321481  0.67655275  0.16100202     0.06100
C64         C  0.48551884  0.24747507  0.16682165     0.03130
C65         C  0.52162155  0.26336588  0.15470934    -0.13020
C66         C  0.52228572  0.29641931  0.13221079     0.00630
C67         C  0.48705522  0.31245816  0.12015517    -0.11540
C68         C  0.45095674  0.29925204  0.13373073     0.03120
C69         C  0.45014348  0.26634320  0.15684485    -0.10960
H70         H  0.54913773  0.25042246  0.16302070     0.08720
H71         H  0.48799358  0.33673850  0.10100161     0.06250
H72         H  0.42224017  0.25617281  0.16773704     0.06100
C73         C  0.19042732  0.95245860  0.32260127     0.03130
C74         C  0.16774092  0.98516306  0.33355057    -0.13020
C75         C  0.13394230  0.98124390  0.35644869     0.00630
C76         C  0.12043046  0.94455475  0.36495207    -0.11540
C77         C  0.14269616  0.91203755  0.35568306     0.03120
C78         C  0.17782057  0.91574695  0.33476161    -0.10960
H79         H  0.17724024  0.01383784  0.32608254     0.08720
H80         H  0.09373293  0.94142248  0.38187041     0.06250
H81         H  0.19597503  0.89050720  0.32998022     0.06100
C82         C  0.79588164  0.95199861  0.31052779     0.03130
C83         C  0.81442573  0.98680423  0.32106936    -0.13020
C84         C  0.84956001  0.98672995  0.34183011     0.00630
C85         C  0.86714945  0.95164717  0.35049143    -0.11540
C86         C  0.84982102  0.91653109  0.33974944     0.03120
C87         C  0.81404111  0.91677960  0.31968884    -0.10960
H88         H  0.80011235  0.01398229  0.31571832     0.08720
H89         H  0.89282875  0.95171827  0.36880201     0.06250
H90         H  0.79953642  0.88972146  0.31277842     0.06100
O91         O  0.33350909  0.50603942  0.05702533    -0.86490
O92         O  0.11282295  0.50943411  0.05736156    -0.86650
O93         O  0.23678034  0.58170140  0.04788551    -0.88320
O94         O  0.22167131  0.49132003  0.13448362    -0.87080
O95         O  0.22390381  0.42550063  0.12972435    -0.86670
O96         O  0.23137242  0.58413387  0.98200890    -0.88040
O97         O  0.16215077  0.54295038  0.08823176    -0.86520
O98         O  0.28555388  0.53634462  0.09342610    -0.86100
Zr99       Zr  0.22406054  0.51526267  0.06800186     2.84310
O100        O  0.18361753  0.46077183  0.06693034    -1.08080
O101        O  0.26345473  0.51634646  0.01250487    -1.08810
C102        C  0.32150879  0.52974247  0.08433544     1.06620
C103        C  0.12581620  0.53638495  0.08042879     1.06570
C104        C  0.23828036  0.59966149  0.01552762     1.09550
C105        C  0.22170229  0.45735851  0.14938904     1.07330
H106        H  0.16801486  0.54079277  0.01431763     0.32890
O107        O  0.18340818  0.51742697  0.01381125    -1.29030
H108        H  0.28085744  0.45952467  0.08729262     0.32560
O109        O  0.26440620  0.46059466  0.06474340    -1.30710
O110        O  0.10798468  0.42112156  0.96589240    -0.86480
O111        O  0.33178829  0.41946551  0.95781782    -0.87980
O112        O  0.16129369  0.54146026  0.93787057    -0.86560
O113        O  0.16291782  0.38135737  0.08497442    -0.86610
O114        O  0.28727419  0.38063872  0.08105933    -0.86320
O115        O  0.28553177  0.54026048  0.93378091    -0.86120
O116        O  0.21248047  0.43077851  0.88790763    -0.86490
O117        O  0.23277087  0.34118465  0.97411610    -0.85960
O118        O  0.21474242  0.49705034  0.89118901    -0.87020
O119        O  0.23012352  0.34037730  0.04032613    -0.86180
O120        O  0.11282540  0.50517242  0.96568191    -0.86580
O121        O  0.33414403  0.50726244  0.96471392    -0.86300
O122        O  0.33509815  0.41403593  0.04882212    -0.85950
O123        O  0.11314937  0.41420749  0.05544054    -0.86360
O124        O  0.15264794  0.38467502  0.93125585    -0.86650
O125        O  0.28294380  0.38788183  0.92398991    -0.87990
Zr126      Zr  0.14295123  0.46216830  0.01262545     2.83100
Zr127      Zr  0.30290436  0.46159845  0.00836771     2.83500
Zr128      Zr  0.22325657  0.51748395  0.95856295     2.84090
Zr129      Zr  0.22412963  0.40645395  0.06213901     2.83360
Zr130      Zr  0.21968092  0.40678001  0.95263307     2.84220
O131        O  0.26170966  0.40752508  0.00602098    -1.08560
O132        O  0.18259203  0.46312445  0.95754906    -1.08060
C133        C  0.11676316  0.39554137  0.93945254     1.06590
C134        C  0.31938961  0.39621454  0.93068582     1.09210
C135        C  0.12534683  0.53136160  0.94245606     1.06770
C136        C  0.12662397  0.38821932  0.07823321     1.07130
C137        C  0.32334338  0.38781025  0.07230646     1.06710
C138        C  0.32174180  0.53251122  0.94068019     1.06260
C139        C  0.21034773  0.46442223  0.87303916     1.06690
C140        C  0.23637949  0.32455072  0.00699756     1.06200
H141        H  0.27629450  0.46263436  0.93069390     0.32880
O142        O  0.26110427  0.46167942  0.95426694    -1.29660
H143        H  0.16567913  0.38295373  0.00853985     0.32900
O144        O  0.18169596  0.40593608  0.00896586    -1.31050
C145        C  0.15753499  0.45940561  0.71631271     0.03130
C146        C  0.15288777  0.42351981  0.69707149    -0.13020
C147        C  0.13303901  0.42156057  0.66163467     0.00630
C148        C  0.11779279  0.45528407  0.64665811    -0.11540
C149        C  0.12582505  0.49116952  0.66325377     0.03120
C150        C  0.14468876  0.49335325  0.69897096    -0.10960
H151        H  0.16380817  0.39756611  0.71007322     0.08720
H152        H  0.09947456  0.45374304  0.62119013     0.06250
H153        H  0.14915021  0.52107018  0.71330065     0.06100
C154        C  0.18748886  0.44955344  0.31406929     0.03130
C155        C  0.18250608  0.41413568  0.33327897    -0.13020
C156        C  0.16471145  0.41335541  0.36988846     0.00630
C157        C  0.15650630  0.44791788  0.38941366    -0.11540
C158        C  0.15689488  0.48255258  0.36979747     0.03120
C159        C  0.17297467  0.48349235  0.33243159    -0.10960
H160        H  0.18954386  0.38695249  0.31903642     0.08720
H161        H  0.14259321  0.44693061  0.41764879     0.06250
H162        H  0.17066705  0.50985256  0.31653667     0.06100
C163        C  0.31587225  0.17936274  0.01751031     0.03130
C164        C  0.33265735  0.16565806  0.05175293    -0.13020
C165        C  0.35548326  0.13178404  0.05035910     0.00630
C166        C  0.35996431  0.11160836  0.01534240    -0.11540
C167        C  0.34376155  0.12531985  0.98166910     0.03120
C168        C  0.32181133  0.15909449  0.98249577    -0.10960
H169        H  0.32926788  0.18188887  0.07862224     0.08720
H170        H  0.37722087  0.08531507  0.01394282     0.06250
H171        H  0.31017921  0.17008596  0.95583687     0.06100
C172        C  0.30020886  0.75629879  0.01627604     0.03130
C173        C  0.31427813  0.77442336  0.05051091    -0.13020
C174        C  0.33241724  0.81084904  0.04919210     0.00630
C175        C  0.33761256  0.82818096  0.01372656    -0.11540
C176        C  0.32377906  0.81144527  0.97953632     0.03120
C177        C  0.30458317  0.77544228  0.98084441    -0.10960
H178        H  0.31129180  0.76022283  0.07790592     0.08720
H179        H  0.35474723  0.85448589  0.01253567     0.06250
H180        H  0.29441341  0.76172610  0.95437581     0.06100
O181        O  0.05988699  0.14072154  0.42489307    -0.86490
O182        O  0.90239580  0.15106848  0.58299251    -0.86650
O183        O  0.02770429  0.09858544  0.55014008    -0.88320
O184        O  0.94073859  0.09844528  0.45736899    -0.87080
O185        O  0.90801983  0.14559495  0.42474806    -0.86670
O186        O  0.05795313  0.14557004  0.58691355    -0.88040
O187        O  0.93075144  0.10231406  0.54639503    -0.86520
O188        O  0.02814133  0.09611954  0.46193915    -0.86100
Zr189      Zr  0.98229446  0.12957667  0.50584731     2.84310
O190        O  0.92780455  0.17045600  0.50616926    -1.08080
O191        O  0.03888801  0.16709366  0.50578023    -1.08810
C192        C  0.05224190  0.10591410  0.43480566     1.06620
C193        C  0.90621732  0.11550026  0.57212524     1.06570
C194        C  0.05162463  0.11018379  0.57690643     1.09550
C195        C  0.91695560  0.11022766  0.43122280     1.07330
H196        H  0.98060286  0.15391200  0.58527439     0.32890
O197        O  0.98170084  0.16900440  0.56219245    -1.29030
H198        H  0.98375332  0.15103872  0.42688680     0.32560
O199        O  0.98385102  0.16692814  0.45009899    -1.30710
O200        O  0.91491838  0.27573613  0.58763147    -0.86480
O201        O  0.07255942  0.26281640  0.43063303    -0.87980
O202        O  0.01389870  0.22262161  0.62750061    -0.86560
O203        O  0.86130031  0.20037421  0.47420883    -0.86610
O204        O  0.95055923  0.21447699  0.38471467    -0.86320
O205        O  0.10594164  0.19731405  0.54004052    -0.86120
O206        O  0.03769880  0.31424319  0.54759072    -0.86490
O207        O  0.94211334  0.31592568  0.45760055    -0.85960
O208        O  0.06740917  0.26616490  0.58156607    -0.87020
O209        O  0.90335229  0.26829274  0.43061951    -0.86180
O210        O  0.94683084  0.21826085  0.62757219    -0.86580
O211        O  0.10855672  0.19650450  0.47372377    -0.86300
O212        O  0.01788828  0.21223131  0.38284587    -0.85950
O213        O  0.86033959  0.20969547  0.53987769    -0.86360
O214        O  0.95022441  0.32048542  0.55374312    -0.86650
O215        O  0.03762706  0.31253933  0.45919177    -0.87990
Zr216      Zr  0.92830846  0.21165354  0.56034454     2.83100
Zr217      Zr  0.04115243  0.20386346  0.44984079     2.83500
Zr218      Zr  0.03834523  0.20666351  0.56127935     2.84090
Zr219      Zr  0.92894825  0.20754824  0.45121069     2.83360
Zr220      Zr  0.98814229  0.28602586  0.50352434     2.84220
O221        O  0.98646841  0.24458927  0.44959991    -1.08560
O222        O  0.98530540  0.24820308  0.55848527    -1.08060
C223        C  0.92736236  0.31032841  0.58176011     1.06590
C224        C  0.06543835  0.29878982  0.43712355     1.09210
C225        C  0.97977262  0.22532031  0.64437572     1.06770
C226        C  0.84355094  0.20224314  0.50731064     1.07130
C227        C  0.98382622  0.21671180  0.36685367     1.06710
C228        C  0.12438898  0.19398012  0.50748040     1.06260
C229        C  0.06231401  0.30152743  0.57283054     1.06690
C230        C  0.91377041  0.30369194  0.43546532     1.06200
H231        H  0.06617925  0.25795264  0.50550809     0.32880
O232        O  0.04184832  0.24367679  0.50524341    -1.29660
H233        H  0.90675334  0.26628131  0.50565627     0.32900
O234        O  0.92946705  0.24962062  0.50521752    -1.31050
C235        C  0.68231157  0.15026223  0.51920374     0.03130
C236        C  0.65883349  0.14455246  0.48621457    -0.13020
C237        C  0.62116370  0.12857725  0.48941199     0.00630
C238        C  0.60552907  0.12238880  0.52615501    -0.11540
C239        C  0.62935783  0.12431982  0.55863581     0.03120
C240        C  0.66764953  0.13901135  0.55549232    -0.10960
H241        H  0.67086909  0.15014375  0.45794818     0.08720
H242        H  0.57631797  0.11018695  0.52889948     0.06250
H243        H  0.68653735  0.13968976  0.58054118     0.06100
C244        C  0.28965500  0.15407734  0.51463483     0.03130
C245        C  0.31007161  0.14698900  0.47971140    -0.13020
C246        C  0.34635973  0.12770623  0.47941597     0.00630
C247        C  0.36264014  0.11667276  0.51439028    -0.11540
C248        C  0.34334487  0.12361799  0.54953688     0.03120
C249        C  0.30706107  0.14299236  0.54960684    -0.10960
H250        H  0.29662525  0.15416378  0.45261110     0.08720
H251        H  0.38922006  0.09949732  0.51396638     0.06250
H252        H  0.29167207  0.14819555  0.57664618     0.06100
C253        C  0.98007380  0.26602013  0.20647587     0.03130
C254        C  0.94481789  0.27790933  0.18839397    -0.13020
C255        C  0.94598726  0.29516173  0.15186366     0.00630
C256        C  0.98182046  0.29879563  0.13296674    -0.11540
C257        C  0.01685271  0.28981918  0.15090790     0.03120
C258        C  0.01612631  0.27349528  0.18762816    -0.10960
H259        H  0.91681868  0.27496968  0.20297118     0.08720
H260        H  0.98290946  0.31419541  0.10605215     0.06250
H261        H  0.04364367  0.26911453  0.20234334     0.06100
C262        C  0.95377213  0.30733717  0.79110542     0.03130
C263        C  0.98423982  0.31852973  0.81642749    -0.13020
C264        C  0.97699791  0.33968638  0.85094961     0.00630
C265        C  0.93679038  0.34889986  0.85958699    -0.11540
C266        C  0.90566049  0.34228826  0.83229613     0.03120
C267        C  0.91484167  0.31952178  0.79936437    -0.10960
H268        H  0.01403866  0.31032916  0.80909288     0.08720
H269        H  0.92990586  0.36098228  0.88764024     0.06250
H270        H  0.89131652  0.31093188  0.78023003     0.06100
O271        O  0.03535233  0.80785113  0.45921207    -0.86490
O272        O  0.03057517  0.59128937  0.46066705    -0.86650
O273        O  0.10679048  0.70942407  0.46781693    -0.88320
O274        O  0.01556055  0.69579895  0.38112803    -0.87080
O275        O  0.94824849  0.69556681  0.38369626    -0.86670
O276        O  0.10879344  0.71020178  0.53400131    -0.88040
O277        O  0.06546126  0.63698442  0.42811699    -0.86520
O278        O  0.06222285  0.75901438  0.42171105    -0.86100
Zr279      Zr  0.03914009  0.69924775  0.44756793     2.84310
O280        O  0.98286306  0.66064815  0.44872946    -1.08080
O281        O  0.04059380  0.74055815  0.50173240    -1.08810
C282        C  0.05833019  0.79462330  0.43204711     1.06620
C283        C  0.05761451  0.60182971  0.43665421     1.06570
C284        C  0.12485352  0.71353889  0.50030336     1.09550
C285        C  0.98130594  0.69434508  0.36530023     1.07330
H286        H  0.06447394  0.64691903  0.50334580     0.32890
O287        O  0.04098001  0.66248285  0.50323630    -1.29030
H288        H  0.98407769  0.75351187  0.42492962     0.32560
O289        O  0.98384540  0.73882525  0.44826881    -1.30710
O290        O  0.94994014  0.59800607  0.56022294    -0.86480
O291        O  0.93645197  0.81234262  0.54390589    -0.87980
O292        O  0.06330064  0.64383848  0.58189541    -0.86560
O293        O  0.90134277  0.63838519  0.43160625    -0.86610
O294        O  0.90662701  0.76136535  0.42450544    -0.86320
O295        O  0.06194035  0.76582761  0.58252731    -0.86120
O296        O  0.95190837  0.70118018  0.62531946    -0.86490
O297        O  0.86185111  0.70844919  0.54026174    -0.85960
O298        O  0.01902426  0.69796117  0.62492945    -0.87020
O299        O  0.85994670  0.70983910  0.47428272    -0.86180
O300        O  0.02992550  0.59532328  0.54972599    -0.86580
O301        O  0.02786477  0.81240458  0.55040448    -0.86300
O302        O  0.94337445  0.80939615  0.45359072    -0.85950
O303        O  0.93329707  0.59166949  0.46558265    -0.86360
O304        O  0.91090688  0.64468658  0.58867804    -0.86650
O305        O  0.90795503  0.76718996  0.58274995    -0.87990
Zr306      Zr  0.98412613  0.62402240  0.50452788     2.83100
Zr307      Zr  0.98551478  0.78047688  0.50238939     2.83500
Zr308      Zr  0.04113635  0.70414066  0.55749804     2.84090
Zr309      Zr  0.92732170  0.70057005  0.45076151     2.83360
Zr310      Zr  0.92983751  0.70466817  0.55935851     2.84220
O311        O  0.92911223  0.74209043  0.50438670    -1.08560
O312        O  0.98527848  0.66609939  0.55754518    -1.08060
C313        C  0.92627779  0.61079742  0.58684785     1.06590
C314        C  0.91278552  0.80186903  0.57113292     1.09210
C315        C  0.05457439  0.60833836  0.57513007     1.06770
C316        C  0.90731261  0.60324228  0.44122479     1.07130
C317        C  0.91739331  0.79676182  0.42922759     1.06710
C318        C  0.05254249  0.80093710  0.57604371     1.06260
C319        C  0.98514244  0.69651536  0.64208463     1.06690
C320        C  0.84376576  0.71265438  0.50810211     1.06200
H321        H  0.98529932  0.76002100  0.58169984     0.32880
O322        O  0.98559081  0.74380607  0.55870256    -1.29660
H323        H  0.90369519  0.64720658  0.50769209     0.32900
O324        O  0.92722389  0.66263592  0.50592287    -1.31050
C325        C  0.68799293  0.77848894  0.50985479     0.03130
C326        C  0.67662135  0.79656067  0.47565999    -0.13020
C327        C  0.64449395  0.82152254  0.47594264     0.00630
C328        C  0.62424829  0.82944405  0.51005771    -0.11540
C329        C  0.63408636  0.81138505  0.54426714     0.03120
C330        C  0.66580136  0.78539875  0.54399036    -0.10960
H331        H  0.69338507  0.79268875  0.44924610     0.08720
H332        H  0.60046661  0.85020843  0.50970013     0.06250
H333        H  0.67352881  0.77097242  0.57025686     0.06100
C334        C  0.28254637  0.77686767  0.50546925     0.03130
C335        C  0.30228545  0.79048661  0.47231109    -0.13020
C336        C  0.33709030  0.81203203  0.47602840     0.00630
C337        C  0.35404450  0.81674476  0.51233209    -0.11540
C338        C  0.33425843  0.80536382  0.54539476     0.03120
C339        C  0.29831978  0.78593940  0.54216885    -0.10960
H340        H  0.28992123  0.78584565  0.44388270     0.08720
H341        H  0.38138377  0.83257579  0.51526527     0.06250
H342        H  0.28213322  0.77948120  0.56820676     0.06100
C343        C  0.97753276  0.67125111  0.19964659     0.03130
C344        C  0.01165594  0.65621419  0.18189010    -0.13020
C345        C  0.00983498  0.63959553  0.14477001     0.00630
C346        C  0.97468298  0.64005263  0.12442376    -0.11540
C347        C  0.94007882  0.65232379  0.14252372     0.03120
C348        C  0.94171375  0.66928808  0.17953646    -0.10960
H349        H  0.03844293  0.65355826  0.19831366     0.08720
H350        H  0.97320076  0.62500870  0.09667904     0.06250
H351        H  0.91456915  0.67757756  0.19391919     0.06100
C352        C  0.98212657  0.64631097  0.80103209     0.03130
C353        C  0.01477873  0.62553295  0.81428579    -0.13020
C354        C  0.01275123  0.60683622  0.84958317     0.00630
C355        C  0.97892125  0.60927652  0.87190153    -0.11540
C356        C  0.94588624  0.62910396  0.85965709     0.03120
C357        C  0.94762303  0.64807445  0.82412787    -0.10960
H358        H  0.04097939  0.62239649  0.79666393     0.08720
H359        H  0.97806539  0.59385217  0.89876639     0.06250
H360        H  0.92211033  0.66344686  0.81412528     0.06100
O361        O  0.67192707  0.54134807  0.08028226    -0.86490
O362        O  0.68493683  0.37485104  0.93649005    -0.86650
O363        O  0.63011147  0.50227534  0.96062023    -0.88320
O364        O  0.63409591  0.41305630  0.05169075    -0.87080
O365        O  0.68444581  0.38418255  0.08438478    -0.86670
O366        O  0.67511483  0.52438589  0.91656279    -0.88040
O367        O  0.63398839  0.40721558  0.96645851    -0.86520
O368        O  0.62650481  0.50709941  0.04515098    -0.86100
Zr369      Zr  0.66181151  0.45830905  0.00600241     2.84310
O370        O  0.70689828  0.40788844  0.00867573    -1.08080
O371        O  0.70022552  0.51239060  0.00115223    -1.08810
C372        C  0.63667610  0.53389395  0.06971977     1.06620
C373        C  0.64800110  0.38029877  0.94411602     1.06570
C374        C  0.64023038  0.52235076  0.93097890     1.09550
C375        C  0.64795793  0.38880689  0.07593806     1.07330
H376        H  0.68507256  0.44965785  0.92744035     0.32890
O377        O  0.70108390  0.45334994  0.95012244    -1.29030
H378        H  0.68341986  0.46311723  0.08543407     0.32560
O379        O  0.69965389  0.46298298  0.06246847    -1.30710
O380        O  0.81355010  0.42906905  0.92615192    -0.86600
O381        O  0.79143212  0.55571261  0.08015560    -0.87980
O382        O  0.76048407  0.46198645  0.88515366    -0.86560
O383        O  0.73925121  0.34416825  0.04443653    -0.86610
O384        O  0.74803317  0.43579152  0.12841380    -0.86320
O385        O  0.72137315  0.57614092  0.96453728    -0.86120
O386        O  0.84452953  0.52849782  0.96889903    -0.86490
O387        O  0.85634135  0.42618223  0.05134778    -0.85960
O388        O  0.79333040  0.55102375  0.93254507    -0.87020
O389        O  0.80893760  0.39236003  0.08429130    -0.86180
O390        O  0.73147129  0.40489476  0.89045235    -0.86580
O391        O  0.72484650  0.58275983  0.03086325    -0.86300
O392        O  0.74279245  0.50164607  0.12767368    -0.85950
O393        O  0.75184631  0.33896420  0.97962832    -0.86360
O394        O  0.86542852  0.45667983  0.95441603    -0.86650
O395        O  0.84494750  0.52513153  0.05308716    -0.87990
Zr396      Zr  0.74824930  0.40418123  0.95579220     2.83100
Zr397      Zr  0.73526373  0.51986221  0.05895434     2.83500
Zr398      Zr  0.73814050  0.50902654  0.94383542     2.84090
Zr399      Zr  0.74576565  0.41240297  0.06267419     2.83360
Zr400      Zr  0.82278398  0.47316759  0.00890033     2.84220
O401        O  0.78136261  0.47071219  0.06314963    -1.08560
O402        O  0.78251542  0.46141372  0.95498628    -1.08060
C403        C  0.84857623  0.44421933  0.92366864     1.06590
C404        C  0.82838956  0.55170124  0.07433933     1.09210
C405        C  0.75709379  0.42501601  0.87443380     1.06770
C406        C  0.74109073  0.32501304  0.01212887     1.07130
C407        C  0.74812700  0.46926119  0.14505834     1.06710
C408        C  0.71922519  0.59601952  0.99678681     1.06260
C409        C  0.82918087  0.55201280  0.94428624     1.06690
C410        C  0.84469794  0.40042337  0.07582950     1.06200
H411        H  0.78471046  0.54458751  0.00323348     0.32880
O412        O  0.77336232  0.51915713  0.00279360    -1.29660
H413        H  0.80730477  0.39016383  0.00920246     0.32900
O414        O  0.78935615  0.41169705  0.00930902    -1.31050
C415        C  0.90485299  0.46496517  0.76349750     0.03130
C416        C  0.91058854  0.43137100  0.73972886    -0.13020
C417        C  0.91226692  0.43333543  0.69860008     0.00630
C418        C  0.91571414  0.47016793  0.68339907    -0.11540
C419        C  0.91146709  0.50349015  0.70602885     0.03120
C420        C  0.90503443  0.50116302  0.74577560    -0.10960
H421        H  0.91323258  0.40445825  0.75386435     0.08720
H422        H  0.92248511  0.47380592  0.65316726     0.06250
H423        H  0.90103955  0.52740302  0.76286710     0.06100
C424        C  0.79220632  0.45397987  0.30580273     0.03130
C425        C  0.80555704  0.41830891  0.32000686    -0.13020
C426        C  0.82392112  0.41685627  0.35619344     0.00630
C427        C  0.82829802  0.45052189  0.37825801    -0.11540
C428        C  0.81644889  0.48614176  0.36447384     0.03120
C429        C  0.79684263  0.48755011  0.32890744    -0.10960
H430        H  0.80349319  0.39228608  0.30231380     0.08720
H431        H  0.84486005  0.44924404  0.40484822     0.06250
H432        H  0.78811475  0.51515506  0.31776428     0.06100
C433        C  0.66182174  0.17733968  0.01379250     0.03130
C434        C  0.65586183  0.16070374  0.05012583    -0.13020
C435        C  0.63551037  0.12587392  0.05290587     0.00630
C436        C  0.62107501  0.10752679  0.01991686    -0.11540
C437        C  0.62363459  0.12463590  0.98398709     0.03120
C438        C  0.64526013  0.15911635  0.98060934    -0.10960
H439        H  0.66609892  0.17520184  0.07618843     0.08720
H440        H  0.60590574  0.08023136  0.02276246     0.06250
H441        H  0.64869346  0.17183333  0.95253626     0.06100
C442        C  0.66533697  0.75474152  0.00602822     0.03130
C443        C  0.66414925  0.77533572  0.04184948    -0.13020
C444        C  0.64650630  0.81230300  0.04458948     0.00630
C445        C  0.63149990  0.82817178  0.01100222    -0.11540
C446        C  0.63453906  0.80943126  0.97527558     0.03120
C447        C  0.65084978  0.77244883  0.97278504    -0.10960
H448        H  0.67572998  0.76205131  0.06733716     0.08720
H449        H  0.61527710  0.85501636  0.01263823     0.06250
H450        H  0.65200565  0.75737877  0.94508177     0.06100
O451        O  0.39656773  0.03629931  0.82588652    -0.86490
O452        O  0.55818642  0.88483459  0.82680286    -0.86650
O453        O  0.42754939  0.91871287  0.87310430    -0.88320
O454        O  0.52130532  0.00827930  0.87565498    -0.87080
O455        O  0.55767052  0.03824548  0.82909365    -0.86670
O456        O  0.39645725  0.88468525  0.82445972    -0.88040
O457        O  0.52317005  0.91680942  0.87466902    -0.86520
O458        O  0.43220045  0.00752404  0.87360556    -0.86100
Zr459      Zr  0.47734361  0.96101438  0.84388401     2.84310
O460        O  0.53475193  0.96071347  0.80572712    -1.08080
O461        O  0.42183560  0.95988155  0.80386921    -1.08810
C462        C  0.40609004  0.03118579  0.86124362     1.06620
C463        C  0.54929900  0.89233218  0.86228838     1.06570
C464        C  0.40212680  0.89375469  0.86021565     1.09550
C465        C  0.54770861  0.03271011  0.86445814     1.07330
H466        H  0.47823460  0.88372406  0.82061239     0.32890
O467        O  0.47860082  0.90584719  0.80420936    -1.29030
H468        H  0.47709779  0.03766237  0.82114844     0.32560
O469        O  0.47763905  0.01485406  0.80472295    -1.30710
O470        O  0.55632632  0.87886223  0.70351291    -0.86480
O471        O  0.40336046  0.03936810  0.70316092    -0.87980
O472        O  0.44700754  0.83840057  0.77036827    -0.86560
O473        O  0.60311296  0.99377464  0.75975062    -0.86610
O474        O  0.51112329  0.08208383  0.77180035    -0.86320
O475        O  0.35644316  0.92545881  0.75676844    -0.86120
O476        O  0.43531670  0.91382939  0.65499651    -0.86490
O477        O  0.52799788  0.00530774  0.65751563    -0.85960
O478        O  0.40504562  0.87821820  0.70197610    -0.87020
O479        O  0.55510524  0.04196729  0.70659716    -0.86180
O480        O  0.51429678  0.83821072  0.77027943    -0.86580
O481        O  0.35479125  0.99156138  0.75800472    -0.86300
O482        O  0.44387838  0.08097553  0.77041589    -0.85950
O483        O  0.60222245  0.92765515  0.76005304    -0.86360
O484        O  0.52483549  0.91189052  0.65599093    -0.86650
O485        O  0.43895133  0.00758330  0.65570315    -0.87990
Zr486      Zr  0.53475291  0.90561049  0.76520150     2.83100
Zr487      Zr  0.42260519  0.01389584  0.76462239     2.83500
Zr488      Zr  0.42417768  0.90481458  0.76380397     2.84090
Zr489      Zr  0.53459058  0.01519355  0.76691122     2.83360
Zr490      Zr  0.48094010  0.95968053  0.68628371     2.84220
O491        O  0.47958353  0.01471038  0.72671183    -1.08560
O492        O  0.48026842  0.90463366  0.72475235    -1.08060
C493        C  0.54865419  0.88567624  0.66792978     1.06590
C494        C  0.41374166  0.03312757  0.66779432     1.09210
C495        C  0.48060555  0.82133795  0.77339587     1.06770
C496        C  0.61982766  0.96034510  0.75624089     1.07130
C497        C  0.47710378  0.09874702  0.77358646     1.06710
C498        C  0.33846869  0.95805501  0.75419658     1.06260
C499        C  0.41192303  0.88692750  0.66670684     1.06690
C500        C  0.55004801  0.03309134  0.67076490     1.06200
H501        H  0.40184987  0.95875116  0.70758864     0.32880
O502        O  0.42424100  0.95900657  0.72452897    -1.29660
H503        H  0.55850089  0.95996101  0.71007566     0.32900
O504        O  0.53555442  0.96011707  0.72654430    -1.31050
C505        C  0.48175038  0.66739489  0.83764393     0.03130
C506        C  0.44653712  0.64722915  0.84551241    -0.13020
C507        C  0.44707348  0.61270219  0.86582922     0.00630
C508        C  0.48290708  0.59735998  0.87706407    -0.11540
C509        C  0.51816481  0.61580989  0.86865323     0.03120
C510        C  0.51779787  0.65088836  0.84904666    -0.10960
H511        H  0.41855566  0.65815604  0.83604005     0.08720
H512        H  0.48340592  0.57121566  0.89366839     0.06250
H513        H  0.54526336  0.66575895  0.84406658     0.06100
C514        C  0.48194452  0.25808270  0.82903157     0.03130
C515        C  0.44829621  0.28181431  0.83293916    -0.13020
C516        C  0.44851834  0.31513944  0.85695873     0.00630
C517        C  0.48401683  0.32616990  0.87436590    -0.11540
C518        C  0.51807944  0.30391661  0.87007497     0.03120
C519        C  0.51683978  0.26974058  0.84778010    -0.10960
H520        H  0.42174601  0.27388581  0.81778190     0.08720
H521        H  0.48511497  0.35175998  0.89273021     0.06250
H522        H  0.54257832  0.25147366  0.84686243     0.06100
C523        C  0.18127107  0.95571990  0.69187608     0.03130
C524        C  0.16650012  0.99006175  0.67639910    -0.13020
C525        C  0.13156395  0.98937467  0.65512021     0.00630
C526        C  0.11082246  0.95499469  0.65068538    -0.11540
C527        C  0.12552278  0.92057204  0.66461180     0.03120
C528        C  0.16009595  0.92111981  0.68632305    -0.10960
H529        H  0.18314826  0.01660491  0.67894158     0.08720
H530        H  0.08425330  0.95464460  0.63359187     0.06250
H531        H  0.17121952  0.89438773  0.69754234     0.06100
C532        C  0.77050557  0.95802616  0.67725358     0.03130
C533        C  0.78388019  0.99361657  0.66295202    -0.13020
C534        C  0.81612326  0.99479834  0.63767489     0.00630
C535        C  0.83498280  0.96077161  0.62648545    -0.11540
C536        C  0.82181135  0.92522253  0.63914631     0.03120
C537        C  0.79084785  0.92391514  0.66599752    -0.10960
H538        H  0.76862830  0.02018957  0.67021726     0.08720
H539        H  0.86010389  0.96196978  0.60713750     0.06250
H540        H  0.78225273  0.89627167  0.67712942     0.06100
C541        C  0.47996517  0.78035864  0.78540473    -0.05460
C542        C  0.44993695  0.76884964  0.81045697    -0.32890
C543        C  0.45053891  0.73298055  0.82812332     0.36360
C544        C  0.48060652  0.70612519  0.81909846    -0.05820
C545        C  0.51011721  0.71707219  0.79271773    -0.32790
C546        C  0.51039691  0.75402927  0.77659559     0.36260
H547        H  0.42662343  0.78867618  0.81795037     0.16630
O548        O  0.42342368  0.72593204  0.85660292    -0.60290
H549        H  0.53334172  0.69708619  0.78476053     0.16650
O550        O  0.54004814  0.76375357  0.75168628    -0.60380
H551        H  0.56239433  0.77136937  0.76841562     0.43650
H552        H  0.39758329  0.72495405  0.84355113     0.43600
C553        C  0.47612327  0.14109801  0.78232454    -0.05460
C554        C  0.50973788  0.16378761  0.77619504    -0.32890
C555        C  0.51121386  0.20252310  0.78874717     0.36360
C556        C  0.47929637  0.21917027  0.80941621    -0.05820
C557        C  0.44499151  0.19701319  0.81368370    -0.32790
C558        C  0.44298689  0.15874404  0.80000206     0.36260
H559        H  0.53526794  0.15136912  0.76189038     0.16630
O560        O  0.54423711  0.22361856  0.78082677    -0.60290
H561        H  0.41985944  0.20866212  0.82924496     0.16650
O562        O  0.40866721  0.13864256  0.80502761    -0.60380
H563        H  0.40642780  0.13442836  0.83313754     0.43650
H564        H  0.53793305  0.23785481  0.75714810     0.43600
C565        C  0.22065684  0.95516341  0.71012226    -0.05460
C566        C  0.23135428  0.98391816  0.73732581    -0.32890
C567        C  0.26929466  0.98493100  0.75300054     0.36360
C568        C  0.29688525  0.95638258  0.74216060    -0.05820
C569        C  0.28580165  0.92724804  0.71566334    -0.32790
C570        C  0.24856124  0.92686221  0.69918602     0.36260
H571        H  0.21035789  0.00587943  0.74616325     0.16630
O572        O  0.27885581  0.01344540  0.77932580    -0.60290
H573        H  0.30684768  0.90562941  0.70601484     0.16650
O574        O  0.24051367  0.89964293  0.67102988    -0.60380
H575        H  0.24671105  0.91223711  0.64630301     0.43650
H576        H  0.28513051  0.03631544  0.76374998     0.43600
C577        C  0.66098879  0.95833314  0.74188493    -0.05460
C578        C  0.67109493  0.92719062  0.71728434    -0.32890
C579        C  0.70638667  0.92639653  0.69659601     0.36360
C580        C  0.73392705  0.95654586  0.70147257    -0.05820
C581        C  0.72473892  0.98690155  0.72785368    -0.32790
C582        C  0.68843334  0.98826264  0.74742822     0.36260
H583        H  0.65024416  0.90425890  0.71189275     0.16630
O584        O  0.71161435  0.89797527  0.66886515    -0.60290
H585        H  0.74537173  0.01022880  0.73272483     0.16650
O586        O  0.67981310  0.01937304  0.77104316    -0.60380
H587        H  0.68740326  0.01147709  0.79729415     0.43650
H588        H  0.71448749  0.87366023  0.68313412     0.43600
C589        C  0.61683159  0.82853492  0.94199099    -0.05460
C590        C  0.58571840  0.81063615  0.92223494    -0.32890
C591        C  0.56300601  0.83152370  0.89647934     0.36360
C592        C  0.57127699  0.87069442  0.89057775    -0.05820
C593        C  0.60328066  0.88815777  0.90891922    -0.32790
C594        C  0.62613752  0.86733228  0.93448616     0.36260
H595        H  0.57797654  0.78101931  0.92806394     0.16630
O596        O  0.53265113  0.81359179  0.87739735    -0.60290
H597        H  0.61062005  0.91792821  0.90330031     0.16650
O598        O  0.65765350  0.88491389  0.95206271    -0.60380
H599        H  0.64630485  0.90402930  0.97068062     0.43650
H600        H  0.50904857  0.81873500  0.89359927     0.43600
C601        C  0.60267698  0.10550848  0.95124332    -0.05460
C602        C  0.62239926  0.09717286  0.91645787    -0.32890
C603        C  0.60501835  0.07351507  0.88796514     0.36360
C604        C  0.56732368  0.05740249  0.89415146    -0.05820
C605        C  0.54720997  0.06689138  0.92843321    -0.32790
C606        C  0.56413370  0.09119989  0.95644901     0.36260
H607        H  0.65196691  0.10776158  0.91194950     0.16630
O608        O  0.62564293  0.06564080  0.85460294    -0.60290
H609        H  0.51798039  0.05574199  0.93351813     0.16650
O610        O  0.54245585  0.10166667  0.98857953    -0.60380
H611        H  0.53789080  0.07756888  0.00284925     0.43650
H612        H  0.64008853  0.04143946  0.85947872     0.43600
C613        C  0.86593762  0.45336270  0.88384601    -0.05460
C614        C  0.90095347  0.43651402  0.87095096    -0.32890
C615        C  0.91524418  0.44061284  0.83246698     0.36360
C616        C  0.89422270  0.46262352  0.80580612    -0.05820
C617        C  0.86169527  0.48316658  0.81985678    -0.32790
C618        C  0.84812793  0.47957518  0.85788897     0.36260
H619        H  0.91585984  0.41945237  0.89130344     0.16630
O620        O  0.94932992  0.42270086  0.82101631    -0.60290
H621        H  0.84571103  0.50181045  0.80079725     0.16650
O622        O  0.81770532  0.50312361  0.86825140    -0.60380
H623        H  0.81437531  0.50049381  0.89606511     0.43650
H624        H  0.96933631  0.44344971  0.82015219     0.43600
C625        C  0.75886336  0.46890578  0.18649942    -0.05460
C626        C  0.79268937  0.44825371  0.19617003    -0.32890
C627        C  0.80318212  0.44266891  0.23457217     0.36360
C628        C  0.77958660  0.45775615  0.26480257    -0.05820
C629        C  0.74589313  0.47923427  0.25527807    -0.32790
C630        C  0.73533231  0.48464167  0.21640968     0.36260
H631        H  0.81123340  0.43621183  0.17349909     0.16630
O632        O  0.83781099  0.42419615  0.24219518    -0.60290
H633        H  0.72756963  0.49152614  0.27804227     0.16650
O634        O  0.70173966  0.50448186  0.20810022    -0.60380
H635        H  0.68085571  0.48460817  0.20619074     0.43650
H636        H  0.83296146  0.39659250  0.23586190     0.43600
C637        C  0.61851494  0.35425675  0.92617225    -0.05460
C638        C  0.58460732  0.34545538  0.94747687    -0.32890
C639        C  0.55270924  0.32686002  0.93004912     0.36360
C640        C  0.55425700  0.31652670  0.89052266    -0.05820
C641        C  0.58933704  0.32242204  0.86986318    -0.32790
C642        C  0.62139276  0.34123179  0.88742817     0.36260
H643        H  0.58226461  0.35419251  0.97763004     0.16630
O644        O  0.51993427  0.31897333  0.95179232    -0.60290
H645        H  0.59106981  0.31445565  0.83949741     0.16650
O646        O  0.65435178  0.34862257  0.86588922    -0.60380
H647        H  0.64975972  0.37424751  0.85461362     0.43650
H648        H  0.50822646  0.34437957  0.95877453     0.43600
C649        C  0.68381776  0.21445648  0.01139605    -0.05460
C650        C  0.71878926  0.21995533  0.03251803    -0.32890
C651        C  0.73868633  0.25547963  0.03260312     0.36360
C652        C  0.72414324  0.28588063  0.01080420    -0.05820
C653        C  0.68970240  0.28030909  0.98932534    -0.32790
C654        C  0.66922193  0.24537853  0.99000244     0.36260
H655        H  0.73053934  0.19670315  0.04930916     0.16630
O656        O  0.77197734  0.26025636  0.05423049    -0.60290
H657        H  0.67755001  0.30387836  0.97325323     0.16650
O658        O  0.63403746  0.24250315  0.97109460    -0.60380
H659        H  0.61400389  0.25138097  0.99018951     0.43650
H660        H  0.79403819  0.25436689  0.03624659     0.43600
C661        C  0.61019862  0.54723793  0.91379138    -0.05460
C662        C  0.58820215  0.57175288  0.93824527    -0.32890
C663        C  0.56065448  0.59711478  0.92326912     0.36360
C664        C  0.55433574  0.59799713  0.88320146    -0.05820
C665        C  0.57721404  0.57448392  0.85847458    -0.32790
C666        C  0.60528249  0.54937493  0.87353359     0.36260
H667        H  0.59269319  0.57144524  0.96909795     0.16630
O668        O  0.53847650  0.61953212  0.94813861    -0.60290
H669        H  0.57193900  0.57422301  0.82766863     0.16650
O670        O  0.62674231  0.52613729  0.84882428    -0.60380
H671        H  0.61172906  0.50168104  0.84678038     0.43650
H672        H  0.55206650  0.64480701  0.94939176     0.43600
C673        C  0.70774559  0.63719857  0.99561190    -0.05460
C674        C  0.67057675  0.64703220  0.98174716    -0.32890
C675        C  0.65635683  0.68488199  0.98576048     0.36360
C676        C  0.67974459  0.71410984  0.00303465    -0.05820
C677        C  0.71714895  0.70429406  0.01660504    -0.32790
C678        C  0.73103720  0.66616133  0.01325902     0.36260
H679        H  0.65179158  0.62491524  0.96925637     0.16630
O680        O  0.61898976  0.69278029  0.97370003    -0.60290
H681        H  0.73569192  0.72626556  0.02969694     0.16650
O682        O  0.76777751  0.65755821  0.02660050    -0.60380
H683        H  0.76424374  0.65305819  0.05456785     0.43650
H684        H  0.60207324  0.68941309  0.99678614     0.43600
C685        C  0.90929656  0.62349166  0.88247669    -0.05460
C686        C  0.91226969  0.62123095  0.92299104    -0.32890
C687        C  0.88647104  0.59815990  0.94391211     0.36360
C688        C  0.85451615  0.58060084  0.92521034    -0.05820
C689        C  0.84758687  0.58890490  0.88621499    -0.32790
C690        C  0.87528464  0.60894436  0.86450912     0.36260
H691        H  0.93758368  0.63331873  0.93770443     0.16630
O692        O  0.89356265  0.59195642  0.98215254    -0.60290
H693        H  0.82233872  0.57692895  0.87140313     0.16650
O694        O  0.87055517  0.61069049  0.82530132    -0.60380
H695        H  0.88160722  0.58619505  0.81468427     0.43650
H696        H  0.91385161  0.57147188  0.98245532     0.43600
C697        C  0.90353306  0.63474454  0.12811152    -0.05460
C698        C  0.88659598  0.60536943  0.15002369    -0.32890
C699        C  0.86149151  0.57832905  0.13279715     0.36360
C700        C  0.85326810  0.58053111  0.09330010    -0.05820
C701        C  0.86698538  0.61186846  0.07230364    -0.32790
C702        C  0.89234275  0.63882045  0.08938909     0.36260
H703        H  0.89540864  0.60145920  0.17968503     0.16630
O704        O  0.84718355  0.54848962  0.15409179    -0.60290
H705        H  0.85859093  0.61495600  0.04248483     0.16650
O706        O  0.90827290  0.66733487  0.06741029    -0.60380
H707        H  0.89076371  0.68988424  0.07156691     0.43650
H708        H  0.82164455  0.55775908  0.16457770     0.43600
C709        C  0.34895402  0.82078765  0.58237452    -0.05460
C710        C  0.38461403  0.80699152  0.59665220    -0.32890
C711        C  0.40499585  0.82806241  0.62496426     0.36360
C712        C  0.39059566  0.86407188  0.63779736    -0.05820
C713        C  0.35405250  0.87695519  0.62505917    -0.32790
C714        C  0.33301455  0.85532061  0.59768709     0.36260
H715        H  0.39737524  0.78072964  0.58463932     0.16630
O716        O  0.43958465  0.81397459  0.63895016    -0.60290
H717        H  0.34220417  0.90412961  0.63584967     0.16650
O718        O  0.29854163  0.86969097  0.58368272    -0.60380
H719        H  0.27755760  0.85721744  0.59896391     0.43650
H720        H  0.43212210  0.79948088  0.66223061     0.43600
C721        C  0.61145272  0.82230125  0.57960757    -0.05460
C722        C  0.57079484  0.82860622  0.57630208    -0.32890
C723        C  0.54987598  0.84887909  0.60495096     0.36360
C724        C  0.56914859  0.86159972  0.63858715    -0.05820
C725        C  0.60875263  0.85176294  0.64381128    -0.32790
C726        C  0.63017185  0.83289042  0.61439242     0.36260
H727        H  0.55550499  0.81978814  0.55023175     0.16630
O728        O  0.51103369  0.85750398  0.59919856    -0.60290
H729        H  0.62377750  0.86060438  0.66988740     0.16650
O730        O  0.66990732  0.82835710  0.61857340    -0.60380
H731        H  0.67295044  0.80620823  0.63591779     0.43650
H732        H  0.49755382  0.83237541  0.59553355     0.43600
C733        C  0.88186658  0.57455226  0.42234965    -0.05460
C734        C  0.87866587  0.57451965  0.38210343    -0.32890
C735        C  0.85469845  0.54790893  0.36277471     0.36360
C736        C  0.83274256  0.52104482  0.38395901    -0.05820
C737        C  0.83400607  0.52297029  0.42462016    -0.32790
C738        C  0.85894162  0.54899558  0.44378130     0.36260
H739        H  0.89616488  0.59421511  0.36544464     0.16630
O740        O  0.85599286  0.54609851  0.32320399    -0.60290
H741        H  0.81720106  0.50275966  0.44149024     0.16650
O742        O  0.86031327  0.54961595  0.48334363    -0.60380
H743        H  0.88007732  0.52988333  0.48995515     0.43650
H744        H  0.83946430  0.56781952  0.31470695     0.43600
C745        C  0.97950988  0.69035416  0.32277236    -0.05460
C746        C  0.00810350  0.70776060  0.29947875    -0.32890
C747        C  0.00716406  0.70312611  0.25913106     0.36360
C748        C  0.97754447  0.68046260  0.24164954    -0.05820
C749        C  0.94886597  0.66350423  0.26506643    -0.32790
C750        C  0.94937071  0.66866101  0.30504715     0.36260
H751        H  0.03109669  0.72514543  0.31254003     0.16630
O752        O  0.03455796  0.72161820  0.23697476    -0.60290
H753        H  0.92646579  0.64503912  0.25248044     0.16650
O754        O  0.92146163  0.65040051  0.32667723    -0.60380
H755        H  0.89784576  0.66704697  0.32566187     0.43650
H756        H  0.05970818  0.70810229  0.24150672     0.43600
C757        C  0.88794661  0.83171675  0.58942645    -0.05460
C758        C  0.86853960  0.85756039  0.56576179    -0.32890
C759        C  0.84454140  0.88634097  0.58176829     0.36360
C760        C  0.84038177  0.89019412  0.62221730    -0.05820
C761        C  0.85822015  0.86311665  0.64591635    -0.32790
C762        C  0.88157734  0.83361266  0.62967546     0.36260
H763        H  0.87176229  0.85526817  0.53465039     0.16630
O764        O  0.82485513  0.91054512  0.55773650    -0.60290
H765        H  0.85533434  0.86576553  0.67701119     0.16650
O766        O  0.89983064  0.80819706  0.65344268    -0.60380
H767        H  0.88007553  0.78782099  0.65827127     0.43650
H768        H  0.84547287  0.92522028  0.54403573     0.43600
C769        C  0.80195077  0.72437004  0.51069252    -0.05460
C770        C  0.77617037  0.71646577  0.48006611    -0.32890
C771        C  0.73807019  0.73200825  0.48013341     0.36360
C772        C  0.72545278  0.75641098  0.51098358    -0.05820
C773        C  0.75073063  0.76273771  0.54228714    -0.32790
C774        C  0.78839575  0.74701823  0.54243879     0.36260
H775        H  0.78573567  0.69866426  0.45571403     0.16630
O776        O  0.71311893  0.72251717  0.45044094    -0.60290
H777        H  0.74216037  0.78172812  0.56609545     0.16650
O778        O  0.81240734  0.75588059  0.57301719    -0.60380
H779        H  0.82329220  0.78168716  0.56745183     0.43650
H780        H  0.72501273  0.73366511  0.42697392     0.43600
C781        C  0.07107340  0.82977943  0.60118123    -0.05460
C782        C  0.11206881  0.83060999  0.60397070    -0.32890
C783        C  0.13054822  0.85799764  0.62774185     0.36360
C784        C  0.10773490  0.88449974  0.64963489    -0.05820
C785        C  0.06656831  0.88130101  0.64912589    -0.32790
C786        C  0.04819755  0.85451753  0.62463492     0.36260
H787        H  0.12980873  0.81096542  0.58646880     0.16630
O788        O  0.17068562  0.86098983  0.62643250    -0.60290
H789        H  0.04863203  0.90130503  0.66598036     0.16650
O790        O  0.00797228  0.85235388  0.62413117    -0.60380
H791        H  0.99958360  0.87155109  0.60506564     0.43650
H792        H  0.18041281  0.84088873  0.64389431     0.43600
C793        C  0.16654948  0.72582223  0.49873280    -0.05460
C794        C  0.19373678  0.71232967  0.52551012    -0.32890
C795        C  0.23210293  0.72730444  0.52698382     0.36360
C796        C  0.24350889  0.75724048  0.50213669    -0.05820
C797        C  0.21635098  0.76986642  0.47476584    -0.32790
C798        C  0.17864423  0.75403914  0.47249284     0.36260
H799        H  0.18518305  0.69018730  0.54547450     0.16630
O800        O  0.25854468  0.71169526  0.55196670    -0.60290
H801        H  0.22369303  0.79318895  0.45575620     0.16650
O802        O  0.15286104  0.76854979  0.44629017    -0.60380
H803        H  0.15872482  0.75456564  0.42166521     0.43650
H804        H  0.24863047  0.71836501  0.57825025     0.43600
C805        C  0.92067843  0.58634631  0.62041587    -0.05460
C806        C  0.95448312  0.57231504  0.63814707    -0.32890
C807        C  0.95175831  0.54989427  0.67084680     0.36360
C808        C  0.91470126  0.53993525  0.68556052    -0.05820
C809        C  0.88076642  0.55570721  0.66926588    -0.32790
C810        C  0.88364323  0.57934259  0.63701004     0.36260
H811        H  0.98319569  0.57836917  0.62616150     0.16630
O812        O  0.98523452  0.53420055  0.68570963    -0.60290
H813        H  0.85202259  0.54729174  0.67968808     0.16650
O814        O  0.85020742  0.59365968  0.62078506    -0.60380
H815        H  0.84268438  0.57436993  0.60061424     0.43650
H816        H  0.99375800  0.55271361  0.70619614     0.43600
C817        C  0.98354237  0.68671957  0.68371766    -0.05460
C818        C  0.01569384  0.69413094  0.70797500    -0.32890
C819        C  0.01533220  0.68235078  0.74658025     0.36360
C820        C  0.98259387  0.66233738  0.76145087    -0.05820
C821        C  0.95037275  0.65543895  0.73730681    -0.32790
C822        C  0.95039259  0.66767483  0.69917654     0.36260
H823        H  0.04124936  0.70904724  0.69701694     0.16630
O824        O  0.04653622  0.69159131  0.76988406    -0.60290
H825        H  0.92525613  0.63940323  0.74766229     0.16650
O826        O  0.91849056  0.65881070  0.67672711    -0.60380
H827        H  0.89883866  0.67912871  0.68292932     0.43650
H828        H  0.06884097  0.67588670  0.75984619     0.43600
C829        C  0.86385195  0.35866432  0.83820584    -0.05460
C830        C  0.84321517  0.35128103  0.87204578    -0.32890
C831        C  0.80619345  0.36836615  0.88001929     0.36360
C832        C  0.79144978  0.39983294  0.85791277    -0.05820
C833        C  0.80960251  0.40395035  0.82168528    -0.32790
C834        C  0.84314371  0.38115595  0.81078272     0.36260
H835        H  0.85533685  0.33114029  0.89224649     0.16630
O836        O  0.78574982  0.35567398  0.91143964    -0.60290
H837        H  0.79716286  0.42364319  0.80127399     0.16650
O838        O  0.85400308  0.37994060  0.77288395    -0.60380
H839        H  0.83670480  0.36029890  0.76057943     0.43650
H840        H  0.80426149  0.35693197  0.93344821     0.43600
C841        C  0.91319750  0.31737602  0.13513903    -0.05460
C842        C  0.90579878  0.31307438  0.09530593    -0.32890
C843        C  0.88626730  0.34177447  0.07513863     0.36360
C844        C  0.87310430  0.37526837  0.09468574    -0.05820
C845        C  0.87833598  0.37864680  0.13478528    -0.32790
C846        C  0.89835793  0.35016206  0.15498883     0.36260
H847        H  0.91731827  0.28829453  0.07938138     0.16630
O848        O  0.87910736  0.33631829  0.03648630    -0.60290
H849        H  0.86691547  0.40353028  0.15047363     0.16650
O850        O  0.90569819  0.35600308  0.19353574    -0.60380
H851        H  0.88303839  0.34428993  0.20704365     0.43650
H852        H  0.90128949  0.34905683  0.02316216     0.43600
C853        C  0.35984281  0.10555577  0.58446321    -0.05460
C854        C  0.40076744  0.10651543  0.59016421    -0.32890
C855        C  0.41863937  0.08250586  0.61675104     0.36360
C856        C  0.39552161  0.05799211  0.63920196    -0.05820
C857        C  0.35454290  0.05874256  0.63562239    -0.32790
C858        C  0.33661813  0.08194498  0.60818413     0.36260
H859        H  0.41917250  0.12479670  0.57266831     0.16630
O860        O  0.45864164  0.08370717  0.62113660    -0.60290
H861        H  0.33648911  0.04019878  0.65319793     0.16650
O862        O  0.29688955  0.07885337  0.60267799    -0.60380
H863        H  0.28477323  0.09404782  0.62419595     0.43650
H864        H  0.46922019  0.06523050  0.60146801     0.43600
C865        C  0.61597154  0.10206116  0.59200507    -0.05460
C866        C  0.59308536  0.11985954  0.62094513    -0.32890
C867        C  0.57173316  0.09755454  0.64702457     0.36360
C868        C  0.57199745  0.05692589  0.64333627    -0.05820
C869        C  0.59569753  0.03918673  0.61504019    -0.32790
C870        C  0.61781967  0.06146753  0.58962637     0.36260
H871        H  0.59049400  0.15098327  0.62230042     0.16630
O872        O  0.54882332  0.11569269  0.67458682    -0.60290
H873        H  0.59713152  0.00801973  0.61267579     0.16650
O874        O  0.64058460  0.04352029  0.56177493    -0.60380
H875        H  0.62196029  0.03005052  0.54422041     0.43650
H876        H  0.56695907  0.12233565  0.69600677     0.43600
C877        C  0.89076876  0.33171352  0.41343931    -0.05460
C878        C  0.84949732  0.32932093  0.41347013    -0.32890
C879        C  0.82690229  0.35496724  0.39211108     0.36360
C880        C  0.84556024  0.38283887  0.36959332    -0.05820
C881        C  0.88678944  0.38393343  0.36812271    -0.32790
C882        C  0.90931911  0.35868368  0.38982504     0.36260
H883        H  0.83473990  0.30824032  0.43106525     0.16630
O884        O  0.78678116  0.35429720  0.39549810    -0.60290
H885        H  0.90152767  0.40580820  0.35149879     0.16650
O886        O  0.94942909  0.36059292  0.38775557    -0.60380
H887        H  0.95667221  0.34423106  0.36499921     0.43650
H888        H  0.77768145  0.33782497  0.37358445     0.43600
C889        C  0.98207963  0.22734882  0.32532685    -0.05460
C890        C  0.00802802  0.21120116  0.29780067    -0.32890
C891        C  0.00681786  0.22223399  0.25883795     0.36360
C892        C  0.97993692  0.25075282  0.24683344    -0.05820
C893        C  0.95383023  0.26642117  0.27453521    -0.32790
C894        C  0.95435107  0.25469511  0.31299433     0.36260
H895        H  0.02899730  0.18958334  0.30637761     0.16630
O896        O  0.03093719  0.20384159  0.23244910    -0.60290
H897        H  0.93344499  0.28885793  0.26678380     0.16650
O898        O  0.92893390  0.27198227  0.33888228    -0.60380
H899        H  0.90357038  0.25835176  0.33528521     0.43650
H900        H  0.05803779  0.21162144  0.23950312     0.43600
C901        C  0.07443976  0.08078140  0.59707884    -0.05460
C902        C  0.08769079  0.04824052  0.57624639    -0.32890
C903        C  0.10903709  0.01961275  0.59444528     0.36360
C904        C  0.11704072  0.02304680  0.63427363    -0.05820
C905        C  0.10548810  0.05635856  0.65480303    -0.32790
C906        C  0.08455247  0.08535729  0.63639590     0.36260
H907        H  0.08149215  0.04494261  0.54571027     0.16630
O908        O  0.12205871  0.98820352  0.57320695    -0.60290
H909        H  0.11110871  0.05907668  0.68548524     0.16650
O910        O  0.07204108  0.11687108  0.65764403    -0.60380
H911        H  0.09489736  0.13458823  0.65855896     0.43650
H912        H  0.09817363  0.97328674  0.56624083     0.43600
C913        C  0.16681174  0.18504369  0.50960334    -0.05460
C914        C  0.19443922  0.20543778  0.48780515    -0.32890
C915        C  0.23475687  0.19683804  0.49005713     0.36360
C916        C  0.24784830  0.16702313  0.51401282    -0.05820
C917        C  0.21992820  0.14691353  0.53581961    -0.32790
C918        C  0.17997330  0.15586227  0.53401583     0.36260
H919        H  0.18481419  0.22841444  0.46941056     0.16630
O920        O  0.26122343  0.21862607  0.46995453    -0.60290
H921        H  0.22892579  0.12323832  0.55362074     0.16650
O922        O  0.15367475  0.13431283  0.55458284    -0.60380
H923        H  0.15409271  0.14543702  0.58118411     0.43650
H924        H  0.25658887  0.21225997  0.44231093     0.43600
C925        C  0.87941504  0.08773641  0.58971000    -0.05460
C926        C  0.85803599  0.06271036  0.56558265    -0.32890
C927        C  0.83384735  0.03449810  0.58125507     0.36360
C928        C  0.83122995  0.03084259  0.62159191    -0.05820
C929        C  0.85072149  0.05738854  0.64578828    -0.32790
C930        C  0.87450694  0.08607276  0.63002021     0.36260
H931        H  0.86060360  0.06463991  0.53448410     0.16630
O932        O  0.81354072  0.00982552  0.55711573    -0.60290
H933        H  0.84944772  0.05437177  0.67682804     0.16650
O934        O  0.89523019  0.11029490  0.65417089    -0.60380
H935        H  0.87704944  0.13186169  0.66050151     0.43650
H936        H  0.83377959  0.99428634  0.54321076     0.43600
C937        C  0.80125894  0.19222479  0.50846414    -0.05460
C938        C  0.78731081  0.16311250  0.48333250    -0.32890
C939        C  0.74893324  0.14901814  0.48664038     0.36360
C940        C  0.72328848  0.16455575  0.51511029    -0.05820
C941        C  0.73704473  0.19403636  0.53995447    -0.32790
C942        C  0.77572387  0.20765355  0.53703488     0.36260
H943        H  0.80680667  0.14987850  0.46207779     0.16630
O944        O  0.73771873  0.11815776  0.46379645    -0.60290
H945        H  0.71772526  0.20651402  0.56180962     0.16650
O946        O  0.78806260  0.23650025  0.56180861    -0.60380
H947        H  0.79406997  0.22355469  0.58631921     0.43650
H948        H  0.73652223  0.12801202  0.43716930     0.43600
C949        C  0.91726154  0.34003216  0.61148158    -0.05460
C950        C  0.92296204  0.33194405  0.65045780    -0.32890
C951        C  0.91993591  0.36089350  0.67929531     0.36360
C952        C  0.91075704  0.39927164  0.66988707    -0.05820
C953        C  0.90034958  0.40557307  0.63076817    -0.32790
C954        C  0.90484883  0.37699094  0.60183970     0.36260
H955        H  0.93120675  0.30315577  0.65860948     0.16630
O956        O  0.92570840  0.35066231  0.71644871    -0.60290
H957        H  0.88873280  0.43288609  0.62176749     0.16650
O958        O  0.89726168  0.38566079  0.56417839    -0.60380
H959        H  0.86952923  0.37802594  0.55995265     0.43650
H960        H  0.90071572  0.33807569  0.72365424     0.43600
C961        C  0.96302607  0.28376613  0.75519413    -0.05460
C962        C  0.93986255  0.25155887  0.74497171    -0.32890
C963        C  0.94655491  0.23053238  0.71026630     0.36360
C964        C  0.97720911  0.24110528  0.68491628    -0.05820
C965        C  0.00111643  0.27239582  0.69585615    -0.32790
C966        C  0.99417313  0.29379592  0.73015042     0.36260
H967        H  0.91606245  0.24289387  0.76376276     0.16630
O968        O  0.92294219  0.19958382  0.70139951    -0.60290
H969        H  0.02353349  0.28213517  0.67632026     0.16650
O970        O  0.01666874  0.32586615  0.73770684    -0.60380
H971        H  0.00488012  0.34667725  0.72240369     0.43650
H972        H  0.89813060  0.21081117  0.69189916     0.43600
C973        C  0.37772429  0.87293523  0.88821433    -0.05460
C974        C  0.37691513  0.83248875  0.88664059    -0.32890
C975        C  0.35600185  0.81148915  0.91402357     0.36360
C976        C  0.33474158  0.83109549  0.94330200    -0.05820
C977        C  0.33247965  0.87172117  0.94241695    -0.32790
C978        C  0.35450291  0.89261418  0.91577205     0.36260
H979        H  0.39430570  0.81707817  0.86535581     0.16630
O980        O  0.35986280  0.77215434  0.91416043    -0.60290
H981        H  0.31583818  0.88743670  0.96437875     0.16650
O982        O  0.35312118  0.93214139  0.91686907    -0.60380
H983        H  0.37302698  0.94024165  0.93618233     0.43650
H984        H  0.34117513  0.76234825  0.89442639     0.43600
C985        C  0.38779688  0.05693835  0.88951258    -0.05460
C986        C  0.34994852  0.04950434  0.90344643    -0.32890
C987        C  0.33349509  0.07371337  0.93195726     0.36360
C988        C  0.35474290  0.10591615  0.94554114    -0.05820
C989        C  0.39162689  0.11438200  0.92989926    -0.32790
C990        C  0.40838483  0.08982783  0.90218253     0.36260
H991        H  0.33391479  0.02432680  0.89325718     0.16630
O992        O  0.29750923  0.06500635  0.94746994    -0.60290
H993        H  0.40836282  0.13879610  0.94089183     0.16650
O994        O  0.44500775  0.09791257  0.88773946    -0.60380
H995        H  0.46361625  0.08795490  0.90696771     0.43650
H996        H  0.30313330  0.04774570  0.96919556     0.43600
C997        C  0.08240798  0.57158355  0.41809277    -0.05460
C998        C  0.12054642  0.58079699  0.40504635    -0.32890
C999        C  0.14519489  0.55241688  0.38867119     0.36360
C1000       C  0.13182177  0.51424166  0.38515672    -0.05820
C1001       C  0.09337931  0.50536847  0.39710714    -0.32790
C1002       C  0.06899758  0.53337244  0.41384302     0.36260
H1003       H  0.13170548  0.60992305  0.40833609     0.16630
O1004       O  0.18278724  0.56183143  0.37801256    -0.60290
H1005       H  0.08211262  0.47629812  0.39365240     0.16650
O1006       O  0.03173238  0.52318158  0.42491163    -0.60380
H1007       H  0.03479789  0.51101783  0.45036177     0.43650
H1008       H  0.18026235  0.57430268  0.35266906     0.43600
C1009       C  0.09141261  0.32620726  0.41750721    -0.05460
C1010       C  0.13245584  0.32085997  0.41738575    -0.32890
C1011       C  0.15744675  0.34793519  0.40022007     0.36360
C1012       C  0.14119111  0.37992458  0.38202670    -0.05820
C1013       C  0.10016890  0.38365199  0.38016246    -0.32790
C1014       C  0.07545068  0.35744251  0.39802723     0.36260
H1015       H  0.14513811  0.29649418  0.43185921     0.16630
O1016       O  0.19736654  0.34350881  0.40230764    -0.60290
H1017       H  0.08725163  0.40807963  0.36596864     0.16650
O1018       O  0.03564279  0.36256261  0.39617624    -0.60380
H1019       H  0.02772298  0.34908255  0.37192944     0.43650
H1020       H  0.20501887  0.35642052  0.42694464     0.43600
C1021       C  0.11296484  0.52523975  0.64222062    -0.05460
C1022       C  0.08944445  0.55324536  0.66067465    -0.32890
C1023       C  0.07094778  0.58138131  0.63901388     0.36360
C1024       C  0.07490059  0.58053236  0.59852749    -0.05820
C1025       C  0.09979852  0.55391357  0.58032359    -0.32790
C1026       C  0.11942025  0.52672760  0.60193720     0.36260
H1027       H  0.08407411  0.55231534  0.69149177     0.16630
O1028       O  0.04736121  0.60820784  0.65729789    -0.60290
H1029       H  0.10411695  0.55429010  0.54930833     0.16650
O1030       O  0.14491418  0.50154438  0.58364547    -0.60380
H1031       H  0.12860711  0.48542377  0.56598069     0.43650
H1032       H  0.06530617  0.62926217  0.66563982     0.43600
C1033       C  0.08639867  0.32917830  0.59467202    -0.05460
C1034       C  0.09084678  0.32453558  0.63459246    -0.32890
C1035       C  0.10881871  0.35305693  0.65734543     0.36360
C1036       C  0.12513797  0.38543254  0.63957820    -0.05820
C1037       C  0.12609716  0.38659452  0.59887453    -0.32790
C1038       C  0.10547991  0.35962437  0.57655637     0.36260
H1039       H  0.07848299  0.29974314  0.64845981     0.16630
O1040       O  0.10777863  0.35015287  0.69674390    -0.60290
H1041       H  0.13999382  0.41049207  0.58449044     0.16650
O1042       O  0.10434390  0.36309808  0.53721276    -0.60380
H1043       H  0.08312187  0.38193299  0.53243052     0.43650
H1044       H  0.08335351  0.36354338  0.70510546     0.43600
C1045       C  0.04077555  0.61322333  0.13081903    -0.05460
C1046       C  0.07727962  0.62751465  0.11936796    -0.32890
C1047       C  0.10551553  0.60257573  0.10332140     0.36360
C1048       C  0.09711621  0.56282505  0.09858318    -0.05820
C1049       C  0.06076587  0.54859281  0.11075450    -0.32790
C1050       C  0.03272258  0.57345783  0.12694345     0.36260
H1051       H  0.08345380  0.65810446  0.12190855     0.16630
O1052       O  0.14026206  0.61765485  0.09022742    -0.60290
H1053       H  0.05412086  0.51812261  0.10781140     0.16650
O1054       O  0.99763011  0.55867383  0.13955197    -0.60380
H1055       H  0.98185246  0.55409993  0.11592642     0.43650
H1056       H  0.15696813  0.62063656  0.11344164     0.43600
C1057       C  0.05216775  0.30803570  0.13470551    -0.05460
C1058       C  0.06879219  0.33887082  0.15571500    -0.32890
C1059       C  0.09249573  0.36598915  0.13732867     0.36360
C1060       C  0.09918908  0.36248763  0.09738226    -0.05820
C1061       C  0.08458324  0.33055739  0.07669654    -0.32790
C1062       C  0.06105728  0.30338315  0.09505769     0.36260
H1063       H  0.06105045  0.34356615  0.18583617     0.16630
O1064       O  0.10680529  0.39734581  0.15771066    -0.60290
H1065       H  0.09124497  0.32684457  0.04621086     0.16650
O1066       O  0.04560691  0.27307242  0.07398267    -0.60380
H1067       H  0.02627370  0.28459846  0.05631103     0.43650
H1068       H  0.11758021  0.38737268  0.18206206     0.43600
C1069       C  0.21728207  0.45400419  0.19206374    -0.05460
C1070       C  0.22785938  0.48453841  0.21717413    -0.32890
C1071       C  0.22072608  0.48262460  0.25718682     0.36360
C1072       C  0.20096006  0.45042116  0.27268597    -0.05820
C1073       C  0.19188524  0.41942182  0.24747123    -0.32790
C1074       C  0.20101835  0.42043099  0.20815267     0.36260
H1075       H  0.24191779  0.50995837  0.20583505     0.16630
O1076       O  0.23438265  0.51174231  0.28099683    -0.60290
H1077       H  0.17638882  0.39436611  0.25763454     0.16650
O1078       O  0.19199084  0.38881781  0.18546286    -0.60380
H1079       H  0.21459471  0.37106419  0.18802774     0.43650
H1080       H  0.21988868  0.53523820  0.27363893     0.43600
C1081       C  0.34959206  0.37729390  0.90559150    -0.05460
C1082       C  0.34489382  0.33873638  0.89330729    -0.32890
C1083       C  0.37593755  0.31825786  0.87559572     0.36360
C1084       C  0.41187027  0.33706041  0.86756917    -0.05820
C1085       C  0.41428779  0.37703199  0.87536906    -0.32790
C1086       C  0.38428050  0.39669741  0.89531839     0.36260
H1087       H  0.31790940  0.32357087  0.89955415     0.16630
O1088       O  0.37189676  0.27924453  0.86976947    -0.60290
H1089       H  0.44055826  0.39289490  0.86791754     0.16650
O1090       O  0.38918668  0.43499709  0.90459559    -0.60380
H1091       H  0.40641117  0.43562211  0.92757597     0.43650
H1092       H  0.35455290  0.27622747  0.84701308     0.43600
C1093       C  0.25386921  0.28589495  0.00724155    -0.05460
C1094       C  0.23860832  0.25720750  0.03108941    -0.32890
C1095       C  0.25893417  0.22243673  0.03556400     0.36360
C1096       C  0.29508260  0.21650231  0.01649037    -0.05820
C1097       C  0.31053239  0.24548027  0.99334254    -0.32790
C1098       C  0.29054186  0.28011471  0.98917070     0.36260
H1099       H  0.21118387  0.26196100  0.04646413     0.16630
O1100       O  0.24324676  0.19445658  0.05836207    -0.60290
H1101       H  0.33862025  0.24142044  0.97894201     0.16650
O1102       O  0.30830475  0.30919954  0.96943741    -0.60380
H1103       H  0.32362427  0.32394845  0.98904062     0.43650
H1104       H  0.22795036  0.17756663  0.04055394     0.43600
C1105       C  0.04544284  0.58495273  0.86553982    -0.05460
C1106       C  0.07830805  0.60525888  0.87875473    -0.32890
C1107       C  0.10402907  0.58847231  0.90464838     0.36360
C1108       C  0.09707005  0.55062269  0.91745566    -0.05820
C1109       C  0.06495998  0.52980861  0.90291781    -0.32790
C1110       C  0.03932341  0.54662755  0.87692156     0.36260
H1111       H  0.08259503  0.63506966  0.87098788     0.16630
O1112       O  0.13517507  0.60980905  0.91817665    -0.60290
H1113       H  0.05995086  0.50032604  0.91134979     0.16650
O1114       O  0.00777054  0.52588556  0.86325584    -0.60380
H1115       H  0.98964756  0.52327059  0.88556961     0.43650
H1116       H  0.12578891  0.62194891  0.94271025     0.43600
C1117       C  0.08203741  0.37936300  0.91684529    -0.05460
C1118       C  0.04813372  0.40217348  0.91406089    -0.32890
C1119       C  0.01414611  0.38953902  0.89446100     0.36360
C1120       C  0.01216582  0.35268502  0.87607790    -0.05820
C1121       C  0.04638182  0.32944693  0.87914667    -0.32790
C1122       C  0.08077223  0.34244751  0.89879356     0.36260
H1123       H  0.04786187  0.43092409  0.92688909     0.16630
O1124       O  0.98393311  0.41501355  0.89184534    -0.60290
H1125       H  0.04669078  0.30075786  0.86625458     0.16650
O1126       O  0.11239724  0.31822757  0.90107351    -0.60380
H1127       H  0.12769906  0.32236450  0.87708101     0.43650
H1128       H  0.97575446  0.42096597  0.91887141     0.43600
C1129       C  0.19804207  0.46537002  0.83271638    -0.05460
C1130       C  0.22547256  0.46243865  0.80247873    -0.32890
C1131       C  0.21269306  0.46060304  0.76406940     0.36360
C1132       C  0.17226472  0.46132581  0.75603346    -0.05820
C1133       C  0.14502815  0.46444632  0.78633903    -0.32790
C1134       C  0.15770656  0.46639747  0.82450715     0.36260
H1135       H  0.25657809  0.46120770  0.80868478     0.16630
O1136       O  0.23971622  0.45764849  0.73467462    -0.60290
H1137       H  0.11383815  0.46502866  0.78032973     0.16650
O1138       O  0.13045038  0.46823828  0.85377323    -0.60380
H1139       H  0.12592010  0.49615406  0.85844165     0.43650
H1140       H  0.24452387  0.48451636  0.72665615     0.43600
C1141       C  0.41070824  0.59366881  0.87914800    -0.05460
C1142       C  0.38475044  0.61388568  0.90386881    -0.32890
C1143       C  0.35511487  0.59429140  0.92373018     0.36360
C1144       C  0.35124971  0.55408756  0.91886228    -0.05820
C1145       C  0.37558409  0.53433631  0.89250407    -0.32790
C1146       C  0.40524440  0.55377624  0.87272742     0.36260
H1147       H  0.38882908  0.64448453  0.90940697     0.16630
O1148       O  0.33103327  0.61437154  0.94885260    -0.60290
H1149       H  0.37168756  0.50373042  0.88739545     0.16650
O1150       O  0.42889822  0.53369355  0.84715568    -0.60380
H1151       H  0.44550607  0.51693275  0.86315943     0.43650
H1152       H  0.34475850  0.61420133  0.97400658     0.43600
C1153       C  0.25208090  0.64036085  0.01677017    -0.05460
C1154       C  0.28876043  0.64856885  0.03318283    -0.32890
C1155       C  0.30426299  0.68604148  0.03371889     0.36360
C1156       C  0.28328721  0.71648220  0.01708873    -0.05820
C1157       C  0.24680706  0.70815634  0.99980302    -0.32790
C1158       C  0.23115286  0.67050715  0.99969140     0.36260
H1159       H  0.30633770  0.62530184  0.04408316     0.16630
O1160       O  0.34066726  0.69228618  0.04938443    -0.60290
H1161       H  0.23032850  0.73096861  0.98650665     0.16650
O1162       O  0.19557793  0.66347077  0.98262571    -0.60380
H1163       H  0.17600931  0.66555706  0.00387900     0.43650
H1164       H  0.35943911  0.68853246  0.02763823     0.43600
C1165       C  0.86633924  0.88087390  0.35605712    -0.05460
C1166       C  0.84207388  0.85699916  0.37817116    -0.32890
C1167       C  0.85834252  0.82872347  0.40147459     0.36360
C1168       C  0.89936880  0.82474789  0.40357453    -0.05820
C1169       C  0.92350682  0.84680797  0.37979758    -0.32790
C1170       C  0.90727835  0.87444412  0.35578035     0.36260
H1171       H  0.81063726  0.86170935  0.37913213     0.16630
O1172       O  0.83413004  0.80702423  0.42416199    -0.60290
H1173       H  0.95506003  0.84271815  0.37999609     0.16650
O1174       O  0.93148982  0.89521930  0.33214058    -0.60380
H1175       H  0.94834759  0.91099465  0.34958894     0.43650
H1176       H  0.82614976  0.78478566  0.40753515     0.43600
C1177       C  0.86561240  0.02233076  0.35984791    -0.05460
C1178       C  0.90639894  0.02848288  0.35905011    -0.32890
C1179       C  0.92341483  0.05722294  0.38225085     0.36360
C1180       C  0.89946642  0.08093372  0.40580492    -0.05820
C1181       C  0.85866989  0.07642311  0.40513832    -0.32790
C1182       C  0.84160234  0.04704225  0.38266991     0.36260
H1183       H  0.92524003  0.00989623  0.34153523     0.16630
O1184       O  0.96338633  0.06224959  0.38146952    -0.60290
H1185       H  0.84015980  0.09462250  0.42338135     0.16650
O1186       O  0.80198371  0.04060684  0.38591541    -0.60380
H1187       H  0.78940834  0.06132481  0.37107845     0.43650
H1188       H  0.97386332  0.04380896  0.40029683     0.43600
C1189       C  0.13019253  0.87590916  0.37338173    -0.05460
C1190       C  0.10760116  0.84947907  0.35194191    -0.32890
C1191       C  0.08441830  0.82225355  0.37078899     0.36360
C1192       C  0.08315349  0.82205947  0.41147137    -0.05820
C1193       C  0.10735150  0.84713573  0.43270856    -0.32790
C1194       C  0.13132572  0.87345899  0.41389188     0.36260
H1195       H  0.10596696  0.85160858  0.32084422     0.16630
O1196       O  0.06163751  0.79729612  0.34934037    -0.60290
H1197       H  0.10748584  0.84640974  0.46396311     0.16650
O1198       O  0.15347535  0.89887698  0.43542840    -0.60380
H1199       H  0.18012431  0.88740235  0.43583474     0.43650
H1200       H  0.03569141  0.81007185  0.34751974     0.43600
C1201       C  0.07348102  0.07480309  0.41398989    -0.05460
C1202       C  0.08727207  0.04357609  0.43485155    -0.32890
C1203       C  0.10841690  0.01406228  0.41650645     0.36360
C1204       C  0.11501938  0.01463488  0.37621419    -0.05820
C1205       C  0.10194938  0.04623226  0.35531387    -0.32790
C1206       C  0.08128625  0.07628985  0.37395837     0.36260
H1207       H  0.08233491  0.04242219  0.46573707     0.16630
O1208       O  0.12258195  0.98467037  0.43833345    -0.60290
H1209       H  0.10688485  0.04711508  0.32443097     0.16650
O1210       O  0.06816082  0.10651280  0.35268303    -0.60380
H1211       H  0.04092937  0.09955160  0.34531438     0.43650
H1212       H  0.15030021  0.99158111  0.44371577     0.43600
C1213       C  0.55879477  0.31754823  0.12344795    -0.05460
C1214       C  0.55989975  0.35724160  0.13249661    -0.32890
C1215       C  0.58972234  0.38048523  0.11822654     0.36360
C1216       C  0.61952080  0.36404466  0.09521983    -0.05820
C1217       C  0.62019139  0.32400160  0.08821176    -0.32790
C1218       C  0.58980223  0.30063836  0.10207929     0.36260
H1219       H  0.53635893  0.37058797  0.14919361     0.16630
O1220       O  0.58865281  0.41948666  0.12557527    -0.60290
H1221       H  0.64307438  0.31122077  0.07021614     0.16650
O1222       O  0.58886716  0.26225013  0.09180056    -0.60380
H1223       H  0.60686120  0.24954221  0.10996170     0.43650
H1224       H  0.60512818  0.42366213  0.14879104     0.43600
C1225       C  0.35366212  0.36450273  0.09114296    -0.05460
C1226       C  0.38525497  0.38324972  0.10899995    -0.32890
C1227       C  0.41548833  0.36215048  0.12564471     0.36360
C1228       C  0.41515967  0.32136605  0.12351569    -0.05820
C1229       C  0.38244740  0.30255550  0.10732590    -0.32790
C1230       C  0.35154049  0.32389136  0.09166775     0.36260
H1231       H  0.38649960  0.41447820  0.11010747     0.16630
O1232       O  0.44513156  0.38156856  0.14450128    -0.60290
H1233       H  0.38159909  0.27135667  0.10533748     0.16650
O1234       O  0.32068524  0.30476445  0.07472559    -0.60380
H1235       H  0.30219416  0.29929274  0.09613232     0.43650
H1236       H  0.45904579  0.39648085  0.12448488     0.43600
C1237       C  0.54944806  0.61129457  0.11544470    -0.05460
C1238       C  0.58067201  0.60000801  0.13868682    -0.32890
C1239       C  0.60925058  0.57462321  0.12420143     0.36360
C1240       C  0.60628779  0.55957834  0.08614136    -0.05820
C1241       C  0.57609129  0.57235134  0.06238575    -0.32790
C1242       C  0.54807872  0.59849504  0.07655860     0.36260
H1243       H  0.58166120  0.60907146  0.16879218     0.16630
O1244       O  0.63853762  0.56278061  0.14822650    -0.60290
H1245       H  0.57421926  0.56212616  0.03275339     0.16650
O1246       O  0.51911258  0.61122237  0.05252413    -0.60380
H1247       H  0.50322401  0.58816194  0.04553045     0.43650
H1248       H  0.65799961  0.58406398  0.14859376     0.43600
C1249       C  0.41022007  0.59428262  0.14493469    -0.05460
C1250       C  0.37400894  0.61154966  0.13755956    -0.32890
C1251       C  0.34366398  0.59014512  0.11994173     0.36360
C1252       C  0.35071063  0.55155883  0.10741399    -0.05820
C1253       C  0.38523870  0.53336914  0.11863672    -0.32790
C1254       C  0.41391430  0.55388655  0.13901667     0.36260
H1255       H  0.36985931  0.64205414  0.14348685     0.16630
O1256       O  0.30731305  0.60666514  0.11491533    -0.60290
H1257       H  0.38987058  0.50306313  0.11184711     0.16650
O1258       O  0.44658715  0.53455333  0.15111998    -0.60380
H1259       H  0.44246683  0.53099443  0.17916696     0.43650
H1260       H  0.31120213  0.63467948  0.11120654     0.43600
C1261       C  0.62342787  0.10973724  0.08981094    -0.05460
C1262       C  0.64376623  0.07784941  0.10380469    -0.32890
C1263       C  0.62583702  0.05360452  0.13043219     0.36360
C1264       C  0.58687508  0.06065656  0.14207200    -0.05820
C1265       C  0.56747972  0.09377089  0.12998082    -0.32790
C1266       C  0.58552925  0.11830203  0.10390060     0.36260
H1267       H  0.67252698  0.07051256  0.09231150     0.16630
O1268       O  0.64566776  0.02199400  0.14320175    -0.60290
H1269       H  0.53794335  0.10009075  0.14010192     0.16650
O1270       O  0.56508600  0.14924584  0.09037318    -0.60380
H1271       H  0.54851941  0.13865286  0.06921686     0.43650
H1272       H  0.65883082  0.03087544  0.16725023     0.43600
C1273       C  0.40979964  0.06489161  0.13645699    -0.05460
C1274       C  0.37134658  0.07882322  0.14246095    -0.32890
C1275       C  0.35422040  0.10410709  0.11653602     0.36360
C1276       C  0.37560984  0.11587272  0.08412355    -0.05820
C1277       C  0.41516187  0.10469781  0.08003318    -0.32790
C1278       C  0.43215165  0.07909126  0.10559573     0.36260
H1279       H  0.35396424  0.06903335  0.16663912     0.16630
O1280       O  0.31563816  0.11447143  0.12137100    -0.60290
H1281       H  0.43225299  0.11412294  0.05548510     0.16650
O1282       O  0.47070453  0.06862340  0.10045827    -0.60380
H1283       H  0.47043043  0.04797041  0.08021966     0.43650
H1284       H  0.31616319  0.13756669  0.13873340     0.43600
C1285       C  0.48519795  0.21156749  0.19003829    -0.05460
C1286       C  0.51368764  0.20585218  0.21882828    -0.32890
C1287       C  0.51578021  0.17102655  0.23881327     0.36360
C1288       C  0.48827750  0.14161526  0.23124433    -0.05820
C1289       C  0.45940515  0.14768984  0.20312495    -0.32790
C1290       C  0.45792769  0.18182080  0.18240139     0.36260
H1291       H  0.53476666  0.22832051  0.22566288     0.16630
O1292       O  0.54430423  0.16636327  0.26606738    -0.60290
H1293       H  0.43873421  0.12500620  0.19571088     0.16650
O1294       O  0.43170785  0.18444706  0.15263455    -0.60380
H1295       H  0.40538581  0.18588797  0.16499615     0.43650
H1296       H  0.56807927  0.15826043  0.25135500     0.43600
C1297       C  0.39535430  0.87368580  0.38588700    -0.05460
C1298       C  0.38356903  0.89277270  0.42002797    -0.32890
C1299       C  0.36300685  0.87327141  0.44857948     0.36360
C1300       C  0.35429593  0.83366067  0.44361120    -0.05820
C1301       C  0.36460789  0.81479993  0.40883629    -0.32790
C1302       C  0.38502306  0.83451785  0.38001915     0.36260
H1303       H  0.39010091  0.92310475  0.42458487     0.16630
O1304       O  0.35055695  0.89337940  0.48097889    -0.60290
H1305       H  0.35803074  0.78445720  0.40456573     0.16650
O1306       O  0.39561122  0.81493955  0.34675093    -0.60380
H1307       H  0.42242401  0.80507776  0.35156045     0.43650
H1308       H  0.37471318  0.89999020  0.49555331     0.43600
C1309       C  0.40375494  0.06755262  0.38630446    -0.05460
C1310       C  0.36273164  0.06935710  0.38745499    -0.32890
C1311       C  0.34328349  0.09150387  0.41577194     0.36360
C1312       C  0.36514817  0.11279304  0.44332241    -0.05820
C1313       C  0.40642794  0.11322678  0.44011714    -0.32790
C1314       C  0.42574806  0.09026891  0.41229380     0.36260
H1315       H  0.34566558  0.05185848  0.36763051     0.16630
O1316       O  0.30317815  0.08898018  0.41849248    -0.60290
H1317       H  0.42380929  0.12976463  0.46068224     0.16650
O1318       O  0.46601463  0.09028250  0.41062128    -0.60380
H1319       H  0.47441311  0.07088918  0.42948823     0.43650
H1320       H  0.29303234  0.10534088  0.39766086     0.43600
C1321       C  0.22944646  0.95743249  0.30314272    -0.05460
C1322       C  0.25278722  0.98957647  0.31308771    -0.32890
C1323       C  0.29049621  0.99408602  0.29781454     0.36360
C1324       C  0.30691978  0.96524066  0.27347555    -0.05820
C1325       C  0.28330245  0.93383771  0.26207572    -0.32790
C1326       C  0.24470497  0.93006360  0.27616183     0.36260
H1327       H  0.24260937  0.01089714  0.33409434     0.16630
O1328       O  0.31209041  0.02553868  0.30938254    -0.60290
H1329       H  0.29501607  0.91173049  0.24267495     0.16650
O1330       O  0.22192369  0.90007270  0.26271579    -0.60380
H1331       H  0.23455117  0.87630518  0.27209331     0.43650
H1332       H  0.30460097  0.04629459  0.29163404     0.43600
C1333       C  0.59827302  0.87741227  0.13964832    -0.05460
C1334       C  0.60550813  0.83782361  0.14401282    -0.32890
C1335       C  0.62395385  0.81589806  0.11467071     0.36360
C1336       C  0.63858044  0.83417378  0.08160722    -0.05820
C1337       C  0.63759217  0.87494513  0.08111097    -0.32790
C1338       C  0.61620238  0.89628739  0.10880570     0.36260
H1339       H  0.59476271  0.82323942  0.16919046     0.16630
O1340       O  0.62497870  0.77658012  0.11765770    -0.60290
H1341       H  0.65063562  0.89019118  0.05726623     0.16650
O1342       O  0.61329135  0.93553270  0.10564528    -0.60380
H1343       H  0.59196874  0.93964973  0.08681679     0.43650
H1344       H  0.59958115  0.76732513  0.10708884     0.43600
C1345       C  0.35025666  0.83073879  0.08308368    -0.05460
C1346       C  0.37917598  0.81202319  0.10435131    -0.32890
C1347       C  0.40308112  0.83303572  0.12999925     0.36360
C1348       C  0.39916015  0.87339066  0.13354654    -0.05820
C1349       C  0.36910539  0.89183418  0.11387851    -0.32790
C1350       C  0.34443540  0.87079576  0.08909236     0.36260
H1351       H  0.38435174  0.78143575  0.09987789     0.16630
O1352       O  0.43109571  0.81410310  0.15053231    -0.60290
H1353       H  0.36440036  0.92253232  0.11814651     0.16650
O1354       O  0.31456715  0.88944940  0.07069094    -0.60380
H1355       H  0.32752096  0.90723686  0.05253999     0.43650
H1356       H  0.41748392  0.80542380  0.17418721     0.43600
C1357       C  0.48253651  0.71347699  0.19691300    -0.05460
C1358       C  0.50342969  0.74352039  0.17955699    -0.32890
C1359       C  0.50631338  0.77980945  0.19735667     0.36360
C1360       C  0.48816762  0.78722434  0.23325524    -0.05820
C1361       C  0.46630789  0.75786206  0.25053240    -0.32790
C1362       C  0.46391403  0.72095745  0.23292606     0.36260
H1363       H  0.51706327  0.73918509  0.15146824     0.16630
O1364       O  0.52567660  0.80856042  0.17854840    -0.60290
H1365       H  0.45134340  0.76348192  0.27775230     0.16650
O1366       O  0.44372464  0.69249959  0.25139288    -0.60380
H1367       H  0.46383866  0.67844508  0.26612392     0.43650
H1368       H  0.50581204  0.82074871  0.16199243     0.43600
C1369       C  0.62988803  0.83939646  0.44100060    -0.05460
C1370       C  0.63272252  0.87951119  0.43786375    -0.32890
C1371       C  0.60948327  0.89887017  0.41146825     0.36360
C1372       C  0.58334201  0.87789656  0.38787685    -0.05820
C1373       C  0.58214024  0.83758765  0.38952568    -0.32790
C1374       C  0.60502541  0.81828926  0.41620306     0.36260
H1375       H  0.65148296  0.89594875  0.45728950     0.16630
O1376       O  0.61292326  0.93807401  0.40835708    -0.60290
H1377       H  0.56245590  0.82122705  0.37095439     0.16650
O1378       O  0.60051107  0.77927745  0.42006831    -0.60380
H1379       H  0.62187689  0.76749133  0.40424977     0.43650
H1380       H  0.60040374  0.94901475  0.43203989     0.43600
C1381       C  0.56995905  0.06439770  0.39462964    -0.05460
C1382       C  0.58354729  0.10218364  0.38861477    -0.32890
C1383       C  0.59965959  0.12429557  0.41913005     0.36360
C1384       C  0.60248517  0.10843499  0.45607403    -0.05820
C1385       C  0.58912255  0.07064046  0.46156175    -0.32790
C1386       C  0.57242529  0.04909690  0.43182380     0.36260
H1387       H  0.58126339  0.11478528  0.36038779     0.16630
O1388       O  0.61113991  0.16157452  0.41294991    -0.60290
H1389       H  0.59206868  0.05708176  0.48920294     0.16650
O1390       O  0.56003490  0.01237702  0.43935798    -0.60380
H1391       H  0.53381595  0.01547252  0.45166375     0.43650
H1392       H  0.63512638  0.15956955  0.39665487     0.43600
C1393       C  0.75459335  0.95288819  0.29687643    -0.05460
C1394       C  0.72666379  0.93014615  0.31568531    -0.32890
C1395       C  0.68679877  0.93327631  0.30735803     0.36360
C1396       C  0.67380755  0.95990822  0.28004421    -0.05820
C1397       C  0.70152678  0.98245553  0.26070912    -0.32790
C1398       C  0.74178555  0.97894292  0.26876934     0.36260
H1399       H  0.73554570  0.91078330  0.33813950     0.16630
O1400       O  0.66042485  0.91177336  0.32788320    -0.60290
H1401       H  0.69202845  0.00246795  0.23908730     0.16650
O1402       O  0.76848365  0.00015963  0.24833202    -0.60380
H1403       H  0.76388418  0.02740004  0.25639361     0.43650
H1404       H  0.66103719  0.88571491  0.31554811     0.43600
loop_ 
_geom_bond_atom_site_label_1 
_geom_bond_atom_site_label_2 
_geom_bond_distance 
_geom_bond_site_symmetry_2 
_ccdc_geom_bond_type 
O1          Zr37   2.415       .  S
O1           C12   1.288       .  A
O2          Zr36   2.427       .  S
O2           C13   1.291       .  A
O3           Zr9   2.403       .  S
O3           C14   1.285       .  A
O4           Zr9   2.435       .  S
O4           C15   1.291       .  A
O5          Zr39   2.421   1_545  S
O5           C15   1.290       .  A
O6          Zr38   2.462   1_545  S
O6           C14   1.297       .  A
O7           Zr9   2.477       .  S
O7           C13   1.299       .  A
O8           Zr9   2.468   1_565  S
O8           C12   1.297       .  A
Zr9          O10   2.339       .  S
Zr9          O11   2.351   1_545  S
Zr9          O19   2.339   1_545  S
Zr9          O17   2.335       .  S
O10         Zr36   2.335       .  S
O10         Zr39   2.342   1_545  S
O11         Zr37   2.339       .  S
O11         Zr38   2.346       .  S
C12        C1396   1.477       .  S
C13        C1288   1.487       .  S
C14        C1264   1.457       .  S
C15        C1381   1.478       .  S
H16          O17   0.963       .  S
O17         Zr36   2.334       .  S
O17         Zr38   2.324   1_545  S
H18          O19   0.965       .  S
O19         Zr37   2.346       .  S
O19         Zr39   2.332       .  S
O20         Zr36   2.442   1_565  S
O20          C43   1.293       .  A
O21         Zr37   2.453       .  S
O21          C44   1.295       .  A
O22         Zr38   2.465   1_545  S
O22          C45   1.298       .  A
O23         Zr39   2.447   1_545  S
O23          C46   1.294       .  A
O24         Zr39   2.452       .  S
O24          C47   1.295       .  A
O25         Zr38   2.480       .  S
O25          C48   1.301       .  A
O26         Zr40   2.404       .  S
O26          C49   1.285       .  A
O27         Zr40   2.426       .  S
O27          C50   1.289       .  A
O28         Zr38   2.474       .  S
O28          C49   1.300       .  A
O29         Zr39   2.446       .  S
O29          C50   1.295       .  A
O30         Zr36   2.405       .  S
O30          C45   1.286       .  A
O31         Zr37   2.408       .  S
O31          C48   1.286       .  A
O32         Zr37   2.406       .  S
O32          C47   1.285       .  A
O33         Zr36   2.420       .  S
O33          C46   1.288       .  A
O34         Zr40   2.437       .  S
O34          C43   1.291       .  A
O35         Zr40   2.433       .  S
O35          C44   1.289       .  A
Zr36         O42   2.338   1_545  S
Zr36         O54   2.330   1_545  S
Zr37         O41   2.332       .  S
Zr37         O52   2.325       .  S
Zr38         O42   2.362       .  S
Zr38         O52   2.332       .  S
Zr39         O41   2.348       .  S
Zr39         O54   2.332       .  S
Zr40         O41   2.337       .  S
Zr40         O42   2.346       .  S
Zr40         O54   2.337       .  S
Zr40         O52   2.345       .  S
C43        C1324   1.485       .  S
C44        C1360   1.476       .  S
C45        C1273   1.477       .  S
C46        C1309   1.466       .  S
C47        C1372   1.460       .  S
C48        C1333   1.482       .  S
C49        C1348   1.466       .  S
C50        C1297   1.478       .  S
H51          O52   0.965       .  S
H53          O54   0.966       .  S
C55        C1357   1.495       .  S
C55          C56   1.418       .  A
C55          C60   1.412       .  A
C56          C57   1.413       .  A
C56          H61   1.082       .  S
C57        C1249   1.488       .  S
C57          C58   1.394       .  A
C58          C59   1.386       .  A
C58          H62   1.082       .  S
C59        C1237   1.472       .  S
C59          C60   1.397       .  A
C60          H63   1.084       .  S
C64        C1285   1.498       .  S
C64          C65   1.412       .  A
C64          C69   1.420       .  A
C65          C66   1.401       .  A
C65          H70   1.083       .  S
C66        C1213   1.476       .  S
C66          C67   1.393       .  A
C67          C68   1.394       .  A
C67          H71   1.084       .  S
C68        C1228   1.490       .  S
C68          C69   1.409       .  A
C69          H72   1.082       .  S
C73        C1321   1.498       .  S
C73          C74   1.417       .  A
C73          C78   1.416       .  A
C74          C75   1.402       .  A
C74          H79   1.082   1_565  S
C75        C1204   1.479   1_565  S
C75          C76   1.390       .  A
C76          C77   1.391       .  A
C76          H80   1.086       .  S
C77        C1189   1.469       .  S
C77          C78   1.402       .  A
C78          H81   1.082       .  S
C82        C1393   1.487       .  S
C82          C83   1.405       .  A
C82          C87   1.413       .  A
C83          C84   1.400       .  A
C83          H88   1.082   1_565  S
C84        C1177   1.478   1_565  S
C84          C85   1.396       .  A
C85          C86   1.398       .  A
C85          H89   1.084       .  S
C86        C1165   1.484       .  S
C86          C87   1.407       .  A
C87          H90   1.083       .  S
O91        Zr127   2.493       .  S
O91         C102   1.304       .  A
O92        Zr126   2.453       .  S
O92         C103   1.296       .  A
O93         Zr99   2.460       .  S
O93         C104   1.295       .  A
O94         Zr99   2.467       .  S
O94         C105   1.297       .  A
O95        Zr129   2.420       .  S
O95         C105   1.288       .  A
O96        Zr128   2.450       .  S
O96         C104   1.293   1_556  A
O97         Zr99   2.412       .  S
O97         C103   1.287       .  A
O98         Zr99   2.385       .  S
O98         C102   1.282       .  A
Zr99        O100   2.338       .  S
Zr99        O101   2.339       .  S
Zr99        O109   2.343       .  S
Zr99        O107   2.343       .  S
O100       Zr126   2.345       .  S
O100       Zr129   2.339       .  S
O101       Zr127   2.329       .  S
O101       Zr128   2.325   1_554  S
C102       C1252   1.478       .  S
C103       C1048   1.470       .  S
C104       C1153   1.488       .  S
C105       C1069   1.493       .  S
H106        O107   0.966       .  S
O107       Zr126   2.360       .  S
O107       Zr128   2.340   1_554  S
H108        O109   0.966       .  S
O109       Zr127   2.347       .  S
O109       Zr129   2.326       .  S
O110       Zr126   2.448   1_556  S
O110        C133   1.295       .  A
O111       Zr127   2.458   1_556  S
O111        C134   1.298       .  A
O112       Zr128   2.389       .  S
O112        C135   1.283       .  A
O113       Zr129   2.396       .  S
O113        C136   1.283       .  A
O114       Zr129   2.430       .  S
O114        C137   1.289       .  A
O115       Zr128   2.422       .  S
O115        C138   1.287       .  A
O116       Zr130   2.423       .  S
O116        C139   1.288       .  A
O117       Zr130   2.452       .  S
O117        C140   1.295   1_556  A
O118       Zr128   2.444       .  S
O118        C139   1.292       .  A
O119       Zr129   2.407       .  S
O119        C140   1.285       .  A
O120       Zr126   2.460   1_556  S
O120        C135   1.297       .  A
O121       Zr127   2.452   1_556  S
O121        C138   1.295       .  A
O122       Zr127   2.452       .  S
O122        C137   1.296       .  A
O123       Zr126   2.467       .  S
O123        C136   1.298       .  A
O124       Zr130   2.519       .  S
O124        C133   1.307       .  A
O125       Zr130   2.451       .  S
O125        C134   1.296       .  A
Zr126       O132   2.332   1_554  S
Zr126       O144   2.357       .  S
Zr127       O131   2.342       .  S
Zr127       O142   2.361   1_554  S
Zr128       O132   2.339       .  S
Zr128       O142   2.328       .  S
Zr129       O131   2.323       .  S
Zr129       O144   2.349       .  S
Zr130       O131   2.346   1_556  S
Zr130       O132   2.331       .  S
Zr130       O144   2.336   1_556  S
Zr130       O142   2.370       .  S
C133       C1117   1.523       .  S
C134       C1081   1.487       .  S
C135       C1108   1.470       .  S
C136       C1060   1.459       .  S
C137       C1225   1.476       .  S
C138       C1144   1.469       .  S
C139       C1129   1.462       .  S
C140       C1093   1.468       .  S
H141        O142   0.965       .  S
H143        O144   0.966       .  S
C145       C1132   1.468       .  S
C145        C146   1.409       .  A
C145        C150   1.405       .  A
C146        C147   1.406       .  A
C146        H151   1.083       .  S
C147       C1036   1.479       .  S
C147        C148   1.392       .  A
C148        C149   1.388       .  A
C148        H152   1.084       .  S
C149       C1021   1.471       .  S
C149        C150   1.399       .  A
C150        H153   1.084       .  S
C154       C1072   1.504       .  S
C154        C155   1.420       .  A
C154        C159   1.414       .  A
C155        C156   1.403       .  A
C155        H160   1.081       .  S
C156       C1012   1.476       .  S
C156        C157   1.392       .  A
C157        C158   1.393       .  A
C157        H161   1.086       .  S
C158       C1000   1.480       .  S
C158        C159   1.404       .  A
C159        H162   1.081       .  S
C163       C1096   1.472       .  S
C163        C164   1.412       .  A
C163        C168   1.403   1_554  A
C164        C165   1.409       .  A
C164        H169   1.083       .  S
C165       C1276   1.477       .  S
C165        C166   1.395       .  A
C166        C167   1.387   1_554  A
C166        H170   1.086       .  S
C167        C988   1.456       .  S
C167        C168   1.390       .  A
C168        H171   1.084       .  S
C172       C1156   1.497       .  S
C172        C173   1.417       .  A
C172        C177   1.416   1_554  A
C173        C174   1.408       .  A
C173        H178   1.083       .  S
C174       C1345   1.482       .  S
C174        C175   1.390       .  A
C175        C176   1.393   1_554  A
C175        H179   1.084       .  S
C176        C976   1.487       .  S
C176        C177   1.411       .  A
C177        H180   1.083       .  S
O181       Zr217   2.422       .  S
O181        C192   1.289       .  A
O182       Zr216   2.424       .  S
O182        C193   1.289       .  A
O183       Zr189   2.451   1_455  S
O183        C194   1.296       .  A
O184       Zr189   2.437       .  S
O184        C195   1.292       .  A
O185       Zr219   2.427       .  S
O185        C195   1.289       .  A
O186       Zr218   2.412       .  S
O186        C194   1.287       .  A
O187       Zr189   2.445       .  S
O187        C193   1.295       .  A
O188       Zr189   2.449   1_455  S
O188        C192   1.295       .  A
Zr189       O190   2.336       .  S
Zr189       O191   2.325   1_655  S
Zr189       O199   2.350       .  S
Zr189       O197   2.360       .  S
O190       Zr216   2.335       .  S
O190       Zr219   2.322       .  S
O191       Zr217   2.345       .  S
O191       Zr218   2.339       .  S
C192       C1201   1.473       .  S
C193        C925   1.466       .  S
C194        C901   1.474       .  S
C195       C1180   1.460       .  S
H196        O197   0.966       .  S
O197       Zr216   2.347       .  S
O197       Zr218   2.330   1_655  S
H198        O199   0.965       .  S
O199       Zr217   2.334   1_655  S
O199       Zr219   2.342       .  S
O200       Zr216   2.439       .  S
O200        C223   1.292       .  A
O201       Zr217   2.412       .  S
O201        C224   1.286       .  A
O202       Zr218   2.488       .  S
O202        C225   1.300   1_455  A
O203       Zr219   2.448       .  S
O203        C226   1.294       .  A
O204       Zr219   2.432       .  S
O204        C227   1.291       .  A
O205       Zr218   2.433       .  S
O205        C228   1.291       .  A
O206       Zr220   2.471   1_455  S
O206        C229   1.300       .  A
O207       Zr220   2.484       .  S
O207        C230   1.302       .  A
O208       Zr218   2.383       .  S
O208        C229   1.282       .  A
O209       Zr219   2.406       .  S
O209        C230   1.286       .  A
O210       Zr216   2.423       .  S
O210        C225   1.288       .  A
O211       Zr217   2.460       .  S
O211        C228   1.296       .  A
O212       Zr217   2.481       .  S
O212        C227   1.300   1_455  A
O213       Zr216   2.426       .  S
O213        C226   1.289       .  A
O214       Zr220   2.452       .  S
O214        C223   1.296       .  A
O215       Zr220   2.465   1_455  S
O215        C224   1.298       .  A
Zr216       O222   2.319       .  S
Zr216       O234   2.344       .  S
Zr217       O221   2.339   1_455  S
Zr217       O232   2.341       .  S
Zr218       O222   2.316   1_455  S
Zr218       O232   2.354       .  S
Zr219       O221   2.343       .  S
Zr219       O234   2.348       .  S
Zr220       O221   2.334       .  S
Zr220       O222   2.338       .  S
Zr220       O234   2.365       .  S
Zr220       O232   2.349   1_655  S
C223        C949   1.480       .  S
C224       C1009   1.473       .  S
C225        C964   1.499       .  S
C226        C937   1.482       .  S
C227        C889   1.495       .  S
C228        C913   1.481       .  S
C229       C1033   1.463       .  S
C230        C877   1.477       .  S
H231        O232   0.965       .  S
H233        O234   0.966       .  S
C235        C940   1.488       .  S
C235        C236   1.410       .  A
C235        C240   1.413       .  A
C236        C237   1.402       .  A
C236        H241   1.081       .  S
C237       C1384   1.484       .  S
C237        C238   1.398       .  A
C238        C239   1.392       .  A
C238        H242   1.085       .  S
C239        C865   1.474       .  S
C239        C240   1.404       .  A
C240        H243   1.083       .  S
C244        C916   1.494       .  S
C244        C245   1.409       .  A
C244        C249   1.413       .  A
C245        C246   1.406       .  A
C245        H250   1.081       .  S
C246       C1312   1.485       .  S
C246        C247   1.397       .  A
C247        C248   1.397       .  A
C247        H251   1.084       .  S
C248        C853   1.488       .  S
C248        C249   1.407       .  A
C249        H252   1.083       .  S
C253        C892   1.506       .  S
C253        C254   1.423       .  A
C253        C258   1.414   1_655  A
C254        C255   1.412       .  A
C254        H259   1.082       .  S
C255        C841   1.485       .  S
C255        C256   1.388       .  A
C256        C257   1.388   1_655  A
C256        H260   1.085       .  S
C257       C1057   1.472       .  S
C257        C258   1.404       .  A
C258        H261   1.082       .  S
C262        C961   1.506       .  S
C262        C263   1.412       .  A
C262        C267   1.418       .  A
C263        C264   1.410       .  A
C263        H268   1.082   1_655  S
C264       C1120   1.546   1_655  S
C264        C265   1.435       .  A
C265        C266   1.440       .  A
C265        H269   1.075       .  S
C266        C829   1.544       .  S
C266        C267   1.407       .  A
C267        H270   1.081       .  S
O271       Zr307   2.460   1_455  S
O271        C282   1.297       .  A
O272       Zr306   2.450   1_455  S
O272        C283   1.295       .  A
O273       Zr279   2.436       .  S
O273        C284   1.291       .  A
O274       Zr279   2.444       .  S
O274        C285   1.293   1_455  A
O275       Zr309   2.429       .  S
O275        C285   1.291       .  A
O276       Zr308   2.450       .  S
O276        C284   1.294       .  A
O277       Zr279   2.420       .  S
O277        C283   1.289       .  A
O278       Zr279   2.406       .  S
O278        C282   1.286       .  A
Zr279       O280   2.338   1_455  S
Zr279       O281   2.338       .  S
Zr279       O289   2.331   1_455  S
Zr279       O287   2.337       .  S
O280       Zr306   2.337       .  S
O280       Zr309   2.345       .  S
O281       Zr307   2.332   1_455  S
O281       Zr308   2.332       .  S
C282       C1192   1.466       .  S
C283        C997   1.481       .  S
C284        C793   1.483       .  S
C285        C745   1.479       .  S
H286        O287   0.966       .  S
O287       Zr306   2.352   1_455  S
O287       Zr308   2.347       .  S
H288        O289   0.965       .  S
O289       Zr307   2.344       .  S
O289       Zr309   2.340       .  S
O290       Zr306   2.438       .  S
O290        C313   1.293       .  A
O291       Zr307   2.447       .  S
O291        C314   1.295       .  A
O292       Zr308   2.398       .  S
O292        C315   1.284       .  A
O293       Zr309   2.413       .  S
O293        C316   1.288       .  A
O294       Zr309   2.422       .  S
O294        C317   1.289       .  A
O295       Zr308   2.400       .  S
O295        C318   1.285       .  A
O296       Zr310   2.416       .  S
O296        C319   1.287       .  A
O297       Zr310   2.417       .  S
O297        C320   1.288       .  A
O298       Zr308   2.464       .  S
O298        C319   1.296   1_455  A
O299       Zr309   2.450       .  S
O299        C320   1.294       .  A
O300       Zr306   2.445   1_455  S
O300        C315   1.294       .  A
O301       Zr307   2.454   1_455  S
O301        C318   1.296       .  A
O302       Zr307   2.456       .  S
O302        C317   1.296       .  A
O303       Zr306   2.457       .  S
O303        C316   1.297       .  A
O304       Zr310   2.421       .  S
O304        C313   1.288       .  A
O305       Zr310   2.416       .  S
O305        C314   1.287       .  A
Zr306       O312   2.322       .  S
Zr306       O324   2.356       .  S
Zr307       O311   2.338       .  S
Zr307       O322   2.353       .  S
Zr308       O312   2.315   1_455  S
Zr308       O322   2.340   1_455  S
Zr309       O311   2.327       .  S
Zr309       O324   2.344       .  S
Zr310       O311   2.329       .  S
Zr310       O312   2.315       .  S
Zr310       O324   2.334       .  S
Zr310       O322   2.334       .  S
C313        C805   1.466       .  S
C314        C757   1.468       .  S
C315       C1024   1.452       .  S
C316        C733   1.465       .  S
C317       C1168   1.468       .  S
C318        C781   1.458       .  S
C319        C817   1.490       .  S
C320        C769   1.483       .  S
H321        O322   0.965       .  S
H323        O324   0.966       .  S
C325        C772   1.490       .  S
C325        C326   1.409       .  A
C325        C330   1.416       .  A
C326        C327   1.396       .  A
C326        H331   1.082       .  S
C327       C1369   1.462       .  S
C327        C328   1.387       .  A
C328        C329   1.396       .  A
C328        H332   1.085       .  S
C329        C721   1.485       .  S
C329        C330   1.407       .  A
C330        H333   1.082       .  S
C334        C796   1.497       .  S
C334        C335   1.418       .  A
C334        C339   1.413       .  A
C335        C336   1.406       .  A
C335        H340   1.083       .  S
C336       C1300   1.482       .  S
C336        C337   1.394       .  A
C337        C338   1.390       .  A
C337        H341   1.085       .  S
C338        C709   1.469       .  S
C338        C339   1.401       .  A
C339        H342   1.082       .  S
C343        C748   1.483       .  S
C343        C344   1.407   1_655  A
C343        C348   1.410       .  A
C344        C345   1.400       .  A
C344        H349   1.083       .  S
C345       C1045   1.469       .  S
C345        C346   1.393   1_455  A
C346        C347   1.394       .  A
C346        H350   1.085       .  S
C347        C697   1.471       .  S
C347        C348   1.401       .  A
C348        H351   1.084       .  S
C352        C820   1.491       .  S
C352        C353   1.410   1_655  A
C352        C357   1.418       .  A
C353        C354   1.398       .  A
C353        H358   1.082       .  S
C354       C1105   1.466       .  S
C354        C355   1.385   1_455  A
C355        C356   1.392       .  A
C355        H359   1.084       .  S
C356        C685   1.487       .  S
C356        C357   1.410       .  A
C357        H360   1.083       .  S
O361       Zr397   2.390       .  S
O361        C372   1.282       .  A
O362       Zr396   2.474       .  S
O362        C373   1.297       .  A
O363       Zr369   2.468   1_556  S
O363        C374   1.298       .  A
O364       Zr369   2.439       .  S
O364        C375   1.293       .  A
O365       Zr399   2.428       .  S
O365        C375   1.289       .  A
O366       Zr398   2.415       .  S
O366        C374   1.289       .  A
O367       Zr369   2.414   1_556  S
O367        C373   1.290       .  A
O368       Zr369   2.457       .  S
O368        C372   1.295       .  A
Zr369       O370   2.332       .  S
Zr369       O371   2.295       .  S
Zr369       O379   2.352       .  S
Zr369       O377   2.350   1_554  S
O370       Zr396   2.306   1_554  S
O370       Zr399   2.301       .  S
O371       Zr397   2.347       .  S
O371       Zr398   2.363   1_554  S
C372       C1240   1.470       .  S
C373        C637   1.481       .  S
C374        C661   1.476       .  S
C375       C1216   1.462       .  S
H376        O377   0.966       .  S
O377       Zr396   2.356       .  S
O377       Zr398   2.320       .  S
H378        O379   0.966       .  S
O379       Zr397   2.321       .  S
O379       Zr399   2.356       .  S
O380       Zr396   2.599       .  S
O380        C403   1.306       .  A
O381       Zr397   2.392       .  S
O381        C404   1.281       .  A
O382       Zr398   2.686       .  S
O382        C405   1.333       .  A
O383       Zr399   2.447       .  S
O383        C406   1.291       .  A
O384       Zr399   2.403       .  S
O384        C407   1.285       .  A
O385       Zr398   2.487       .  S
O385        C408   1.302       .  A
O386       Zr400   2.501   1_556  S
O386        C409   1.305       .  A
O387       Zr400   2.501       .  S
O387        C410   1.305       .  A
O388       Zr398   2.413       .  S
O388        C409   1.290       .  A
O389       Zr399   2.391       .  S
O389        C410   1.283       .  A
O390       Zr396   2.339       .  S
O390        C405   1.252       .  A
O391       Zr397   2.436       .  S
O391        C408   1.292   1_554  A
O392       Zr397   2.492       .  S
O392        C407   1.300       .  A
O393       Zr396   2.429       .  S
O393        C406   1.287   1_556  A
O394       Zr400   2.434   1_556  S
O394        C403   1.280       .  A
O395       Zr400   2.461       .  S
O395        C404   1.295       .  A
Zr396       O402   2.303       .  S
Zr396       O414   2.341   1_556  S
Zr397       O401   2.326       .  S
Zr397       O412   2.332       .  S
Zr398       O402   2.281       .  S
Zr398       O412   2.395   1_556  S
Zr399       O401   2.358       .  S
Zr399       O414   2.364       .  S
Zr400       O401   2.347       .  S
Zr400       O402   2.353   1_554  S
Zr400       O414   2.417       .  S
Zr400       O412   2.334       .  S
C403        C613   1.537       .  S
C404        C700   1.459       .  S
C405        C832   1.559       .  S
C406        C652   1.475       .  S
C407        C625   1.484       .  S
C408        C673   1.483       .  S
C409        C688   1.478       .  S
C410        C844   1.469       .  S
H411        O412   0.963       .  S
H413        O414   0.966       .  S
C415        C616   1.512       .  S
C415        C416   1.425       .  A
C415        C420   1.410       .  A
C416        C417   1.429       .  A
C416        H421   1.068       .  S
C417        C952   1.529       .  S
C417        C418   1.397       .  A
C418        C419   1.390       .  A
C418        H422   1.081       .  S
C419        C808   1.467       .  S
C419        C420   1.397       .  A
C420        H423   1.083       .  S
C424        C628   1.495       .  S
C424        C425   1.418       .  A
C424        C429   1.408       .  A
C425        C426   1.407       .  A
C425        H430   1.083       .  S
C426        C880   1.477       .  S
C426        C427   1.391       .  A
C427        C428   1.395       .  A
C427        H431   1.085       .  S
C428        C736   1.483       .  S
C428        C429   1.407       .  A
C429        H432   1.083       .  S
C433        C649   1.493       .  S
C433        C434   1.410       .  A
C433        C438   1.420   1_554  A
C434        C435   1.398       .  A
C434        H439   1.084       .  S
C435       C1261   1.464       .  S
C435        C436   1.389       .  A
C436        C437   1.393   1_554  A
C436        H440   1.085       .  S
C437        C601   1.488       .  S
C437        C438   1.411       .  A
C438        H441   1.083       .  S
C442        C676   1.494       .  S
C442        C443   1.419       .  A
C442        C447   1.409   1_554  A
C443        C444   1.418       .  A
C443        H448   1.082       .  S
C444       C1336   1.499       .  S
C444        C445   1.398       .  A
C445        C446   1.389   1_554  A
C445        H449   1.084       .  S
C446        C589   1.475       .  S
C446        C447   1.399       .  A
C447        H450   1.084       .  S
O451       Zr487   2.409       .  S
O451        C462   1.285       .  A
O452       Zr486   2.409       .  S
O452        C463   1.286       .  A
O453       Zr459   2.469       .  S
O453        C464   1.298       .  A
O454       Zr459   2.466   1_545  S
O454        C465   1.299       .  A
O455       Zr489   2.418       .  S
O455        C465   1.288       .  A
O456       Zr488   2.416       .  S
O456        C464   1.287       .  A
O457       Zr459   2.454       .  S
O457        C463   1.295       .  A
O458       Zr459   2.437   1_545  S
O458        C462   1.292       .  A
Zr459       O460   2.354       .  S
Zr459       O461   2.351       .  S
Zr459       O469   2.333   1_565  S
Zr459       O467   2.333       .  S
O460       Zr486   2.347       .  S
O460       Zr489   2.344   1_565  S
O461       Zr487   2.339   1_565  S
O461       Zr488   2.338       .  S
C462        C985   1.450       .  S
C463        C592   1.458       .  S
C464        C973   1.474       .  S
C465        C604   1.486       .  S
H466        O467   0.965       .  S
O467       Zr486   2.335       .  S
O467       Zr488   2.330       .  S
H468        O469   0.965       .  S
O469       Zr487   2.340       .  S
O469       Zr489   2.334       .  S
O470       Zr486   2.422       .  S
O470        C493   1.289       .  A
O471       Zr487   2.418       .  S
O471        C494   1.287       .  A
O472       Zr488   2.448       .  S
O472        C495   1.295       .  A
O473       Zr489   2.459   1_565  S
O473        C496   1.295       .  A
O474       Zr489   2.457       .  S
O474        C497   1.296       .  A
O475       Zr488   2.431       .  S
O475        C498   1.291       .  A
O476       Zr490   2.462       .  S
O476        C499   1.297       .  A
O477       Zr490   2.473   1_545  S
O477        C500   1.299       .  A
O478       Zr488   2.408       .  S
O478        C499   1.285       .  A
O479       Zr489   2.405       .  S
O479        C500   1.285       .  A
O480       Zr486   2.449       .  S
O480        C495   1.293       .  A
O481       Zr487   2.446   1_565  S
O481        C498   1.293       .  A
O482       Zr487   2.442       .  S
O482        C497   1.293       .  A
O483       Zr486   2.428       .  S
O483        C496   1.292       .  A
O484       Zr490   2.448       .  S
O484        C493   1.295       .  A
O485       Zr490   2.455   1_545  S
O485        C494   1.296       .  A
Zr486       O492   2.332       .  S
Zr486       O504   2.341       .  S
Zr487       O491   2.337       .  S
Zr487       O502   2.333   1_545  S
Zr488       O492   2.334       .  S
Zr488       O502   2.345       .  S
Zr489       O491   2.341       .  S
Zr489       O504   2.344   1_545  S
Zr490       O491   2.344   1_565  S
Zr490       O492   2.353       .  S
Zr490       O504   2.332       .  S
Zr490       O502   2.336       .  S
C493        C724   1.474       .  S
C494        C856   1.469       .  S
C495        C541   1.490       .  S
C496        C577   1.486       .  S
C497        C553   1.494       .  S
C498        C568   1.480       .  S
C499        C712   1.461       .  S
C500        C868   1.473       .  S
H501        O502   0.965       .  S
H503        O504   0.965       .  S
C505        C544   1.503       .  S
C505        C506   1.416       .  A
C505        C510   1.417       .  A
C506        C507   1.403       .  A
C506        H511   1.081       .  S
C507       C1141   1.479       .  S
C507        C508   1.393       .  A
C508        C509   1.393       .  A
C508        H512   1.085       .  S
C509        C664   1.475       .  S
C509        C510   1.407       .  A
C510        H513   1.083       .  S
C514        C556   1.501       .  S
C514        C515   1.416       .  A
C514        C519   1.413       .  A
C515        C516   1.410       .  A
C515        H520   1.081       .  S
C516       C1084   1.502       .  S
C516        C517   1.404       .  A
C517        C518   1.399       .  A
C517        H521   1.082       .  S
C518        C640   1.486       .  S
C518        C519   1.402       .  A
C519        H522   1.082       .  S
C523        C565   1.487       .  S
C523        C524   1.412       .  A
C523        C528   1.410       .  A
C524        C525   1.404       .  A
C524        H529   1.083   1_565  S
C525        C904   1.474   1_565  S
C525        C526   1.392       .  A
C526        C527   1.392       .  A
C526        H530   1.085       .  S
C527        C784   1.476       .  S
C527        C528   1.401       .  A
C528        H531   1.083       .  S
C532        C580   1.499       .  S
C532        C533   1.415       .  A
C532        C537   1.418       .  A
C533        C534   1.402       .  A
C533        H538   1.083   1_565  S
C534        C928   1.472   1_565  S
C534        C535   1.391       .  A
C535        C536   1.391       .  A
C535        H539   1.085       .  S
C536        C760   1.479       .  S
C536        C537   1.404       .  A
C537        H540   1.081       .  S
C541        C542   1.401       .  A
C541        C546   1.410       .  A
C542        C543   1.399       .  A
C542        H547   1.078       .  S
C543        C544   1.414       .  A
C543        O548   1.373       .  S
C544        C545   1.412       .  A
C545        C546   1.410       .  A
C545        H549   1.083       .  S
C546        O550   1.371       .  S
O548        H552   0.992       .  S
O550        H551   0.992       .  S
C553        C554   1.407       .  A
C553        C558   1.414       .  A
C554        C555   1.405       .  A
C554        H559   1.083       .  S
C555        C556   1.415       .  A
C555        O560   1.371       .  S
C556        C557   1.407       .  A
C557        C558   1.402       .  A
C557        H561   1.083       .  S
C558        O562   1.373       .  S
O560        H564   0.992       .  S
O562        H563   0.991       .  S
C565        C566   1.407       .  A
C565        C570   1.411       .  A
C566        C567   1.405       .  A
C566        H571   1.083   1_565  S
C567        C568   1.409       .  A
C567        O572   1.371   1_565  S
C568        C569   1.404       .  A
C569        C570   1.394       .  A
C569        H573   1.084       .  S
C570        O574   1.372       .  S
O572        H576   0.992       .  S
O574        H575   0.992       .  S
C577        C578   1.403       .  A
C577        C582   1.408       .  A
C578        C579   1.396       .  A
C578        H583   1.080       .  S
C579        C580   1.413       .  A
C579        O584   1.373       .  S
C580        C581   1.414       .  A
C581        C582   1.407       .  A
C581        H585   1.083   1_565  S
C582        O586   1.371   1_565  S
O584        H588   0.992       .  S
O586        H587   0.992       .  S
C589        C590   1.402       .  A
C589        C594   1.412       .  A
C590        C591   1.399       .  A
C590        H595   1.084       .  S
C591        C592   1.407       .  A
C591        O596   1.372       .  S
C592        C593   1.396       .  A
C593        C594   1.396       .  A
C593        H597   1.084       .  S
C594        O598   1.373       .  S
O596        H600   0.992       .  S
O598        H599   0.992       .  S
C601        C602   1.401       .  A
C601        C606   1.415       .  A
C602        C603   1.404       .  A
C602        H607   1.083       .  S
C603        C604   1.417       .  A
C603        O608   1.372       .  S
C604        C605   1.401       .  A
C605        C606   1.399       .  A
C605        H609   1.083       .  S
C606        O610   1.375       .  S
O608        H612   0.992       .  S
O610        H611   0.992   1_556  S
C613        C614   1.395       .  A
C613        C618   1.431       .  A
C614        C615   1.427       .  A
C614        H619   1.062       .  S
C615        C616   1.410       .  A
C615        O620   1.370       .  S
C616        C617   1.397       .  A
C617        C618   1.402       .  A
C617        H621   1.084       .  S
C618        O622   1.362       .  S
O620        H624   0.992       .  S
O622        H623   0.976       .  S
C625        C626   1.403       .  A
C625        C630   1.407       .  A
C626        C627   1.398       .  A
C626        H631   1.082       .  S
C627        C628   1.408       .  A
C627        O632   1.373       .  S
C628        C629   1.413       .  A
C629        C630   1.413       .  A
C629        H633   1.083       .  S
C630        O634   1.371       .  S
O632        H636   0.992       .  S
O634        H635   0.992       .  S
C637        C638   1.404       .  A
C637        C642   1.410       .  A
C638        C639   1.397       .  A
C638        H643   1.084       .  S
C639        C640   1.409       .  A
C639        O644   1.374       .  S
C640        C641   1.406       .  A
C641        C642   1.407       .  A
C641        H645   1.083       .  S
C642        O646   1.371       .  S
O644        H648   0.992       .  S
O646        H647   0.992       .  S
C649        C650   1.413       .  A
C649        C654   1.410   1_554  A
C650        C651   1.406       .  A
C650        H655   1.083       .  S
C651        C652   1.403       .  A
C651        O656   1.371       .  S
C652        C653   1.404   1_554  A
C653        C654   1.399       .  A
C653        H657   1.083       .  S
C654        O658   1.372       .  S
O656        H660   0.992       .  S
O658        H659   0.992       .  S
C661        C662   1.402       .  A
C661        C666   1.410       .  A
C662        C663   1.397       .  A
C662        H667   1.081       .  S
C663        C664   1.407       .  A
C663        O668   1.372       .  S
C664        C665   1.403       .  A
C665        C666   1.404       .  A
C665        H669   1.083       .  S
C666        O670   1.371       .  S
O668        H672   0.992       .  S
O670        H671   0.992       .  S
C673        C674   1.402       .  A
C673        C678   1.411   1_556  A
C674        C675   1.404       .  A
C674        H679   1.083       .  S
C675        C676   1.414   1_556  A
C675        O680   1.372       .  S
C676        C677   1.405       .  A
C677        C678   1.408       .  A
C677        H681   1.083       .  S
C678        O682   1.372       .  S
O680        H684   0.992       .  S
O682        H683   0.992       .  S
C685        C686   1.412       .  A
C685        C690   1.407       .  A
C686        C687   1.398       .  A
C686        H691   1.084       .  S
C687        C688   1.402       .  A
C687        O692   1.370       .  S
C688        C689   1.409       .  A
C689        C690   1.397       .  A
C689        H693   1.082       .  S
C690        O694   1.372       .  S
O692        H696   0.992       .  S
O694        H695   0.992       .  S
C697        C698   1.406       .  A
C697        C702   1.407       .  A
C698        C699   1.396       .  A
C698        H703   1.084       .  S
C699        C700   1.402       .  A
C699        O704   1.372       .  S
C700        C701   1.400       .  A
C701        C702   1.397       .  A
C701        H705   1.081       .  S
C702        O706   1.371       .  S
O704        H708   0.992       .  S
O706        H707   0.992       .  S
C709        C710   1.403       .  A
C709        C714   1.408       .  A
C710        C711   1.398       .  A
C710        H715   1.084       .  S
C711        C712   1.405       .  A
C711        O716   1.371       .  S
C712        C713   1.400       .  A
C713        C714   1.398       .  A
C713        H717   1.084       .  S
C714        O718   1.372       .  S
O716        H720   0.992       .  S
O718        H719   0.992       .  S
C721        C722   1.408       .  A
C721        C726   1.409       .  A
C722        C723   1.396       .  A
C722        H727   1.084       .  S
C723        C724   1.404       .  A
C723        O728   1.373       .  S
C724        C725   1.405       .  A
C725        C726   1.401       .  A
C725        H729   1.080       .  S
C726        O730   1.372       .  S
O728        H732   0.991       .  S
O730        H731   0.992       .  S
C733        C734   1.400       .  A
C733        C738   1.403       .  A
C734        C735   1.395       .  A
C734        H739   1.081       .  S
C735        C736   1.410       .  A
C735        O740   1.372       .  S
C736        C737   1.410       .  A
C737        C738   1.399       .  A
C737        H741   1.084       .  S
C738        O742   1.372       .  S
O740        H744   0.992       .  S
O742        H743   0.992       .  S
C745        C746   1.406   1_655  A
C745        C750   1.409       .  A
C746        C747   1.405       .  A
C746        H751   1.083       .  S
C747        C748   1.410   1_455  A
C747        O752   1.372       .  S
C748        C749   1.403       .  A
C749        C750   1.393       .  A
C749        H753   1.084       .  S
C750        O754   1.370       .  S
O752        H756   0.992       .  S
O754        H755   0.992       .  S
C757        C758   1.397       .  A
C757        C762   1.410       .  A
C758        C759   1.394       .  A
C758        H763   1.084       .  S
C759        C760   1.411       .  A
C759        O764   1.373       .  S
C760        C761   1.402       .  A
C761        C762   1.403       .  A
C761        H765   1.083       .  S
C762        O766   1.372       .  S
O764        H768   0.992       .  S
O766        H767   0.992       .  S
C769        C770   1.404       .  A
C769        C774   1.413       .  A
C770        C771   1.406       .  A
C770        H775   1.084       .  S
C771        C772   1.414       .  A
C771        O776   1.373       .  S
C772        C773   1.403       .  A
C773        C774   1.394       .  A
C773        H777   1.083       .  S
C774        O778   1.372       .  S
O776        H780   0.992       .  S
O778        H779   0.991       .  S
C781        C782   1.400       .  A
C781        C786   1.403       .  A
C782        C783   1.396       .  A
C782        H787   1.084       .  S
C783        C784   1.410       .  A
C783        O788   1.371       .  S
C784        C785   1.407       .  A
C785        C786   1.395       .  A
C785        H789   1.084       .  S
C786        O790   1.372       .  S
O788        H792   0.992       .  S
O790        H791   0.992   1_455  S
C793        C794   1.403       .  A
C793        C798   1.410       .  A
C794        C795   1.407       .  A
C794        H799   1.084       .  S
C795        C796   1.416       .  A
C795        O800   1.373       .  S
C796        C797   1.406       .  A
C797        C798   1.398       .  A
C797        H801   1.083       .  S
C798        O802   1.371       .  S
O800        H804   0.992       .  S
O802        H803   0.992       .  S
C805        C806   1.401       .  A
C805        C810   1.406       .  A
C806        C807   1.391       .  A
C806        H811   1.082       .  S
C807        C808   1.404       .  A
C807        O812   1.372       .  S
C808        C809   1.406       .  A
C809        C810   1.404       .  A
C809        H813   1.084       .  S
C810        O814   1.371       .  S
O812        H816   0.992       .  S
O814        H815   0.992       .  S
C817        C818   1.405   1_655  A
C817        C822   1.416       .  A
C818        C819   1.407       .  A
C818        H823   1.083       .  S
C819        C820   1.414   1_455  A
C819        O824   1.372       .  S
C820        C821   1.401       .  A
C821        C822   1.397       .  A
C821        H825   1.084       .  S
C822        O826   1.371       .  S
O824        H828   0.992       .  S
O826        H827   0.992       .  S
C829        C830   1.392       .  A
C829        C834   1.432       .  A
C830        C831   1.417       .  A
C830        H835   1.084       .  S
C831        C832   1.440       .  A
C831        O836   1.370       .  S
C832        C833   1.406       .  A
C833        C834   1.434       .  A
C833        H837   1.082       .  S
C834        O838   1.362       .  S
O836        H840   0.993       .  S
O838        H839   0.992       .  S
C841        C842   1.409       .  A
C841        C846   1.409       .  A
C842        C843   1.400       .  A
C842        H847   1.084       .  S
C843        C844   1.405       .  A
C843        O848   1.372       .  S
C844        C845   1.404       .  A
C845        C846   1.403       .  A
C845        H849   1.082       .  S
C846        O850   1.371       .  S
O848        H852   0.992       .  S
O850        H851   0.992       .  S
C853        C854   1.409       .  A
C853        C858   1.412       .  A
C854        C855   1.398       .  A
C854        H859   1.084       .  S
C855        C856   1.403       .  A
C855        O860   1.372       .  S
C856        C857   1.402       .  A
C857        C858   1.402       .  A
C857        H861   1.084       .  S
C858        O862   1.372       .  S
O860        H864   0.992       .  S
O862        H863   0.992       .  S
C865        C866   1.400       .  A
C865        C870   1.410       .  A
C866        C867   1.402       .  A
C866        H871   1.084       .  S
C867        C868   1.413       .  A
C867        O872   1.372       .  S
C868        C869   1.399       .  A
C869        C870   1.401       .  A
C869        H873   1.084       .  S
C870        O874   1.373       .  S
O872        H876   0.992       .  S
O874        H875   0.991       .  S
C877        C878   1.408       .  A
C877        C882   1.404       .  A
C878        C879   1.403       .  A
C878        H883   1.084       .  S
C879        C880   1.405       .  A
C879        O884   1.371       .  S
C880        C881   1.405       .  A
C881        C882   1.399       .  A
C881        H885   1.084       .  S
C882        O886   1.369       .  S
O884        H888   0.992       .  S
O886        H887   0.992       .  S
C889        C890   1.404   1_655  A
C889        C894   1.414       .  A
C890        C891   1.412       .  A
C890        H895   1.084       .  S
C891        C892   1.419   1_455  A
C891        O896   1.373       .  S
C892        C893   1.405       .  A
C893        C894   1.402       .  A
C893        H897   1.083       .  S
C894        O898   1.372       .  S
O896        H900   0.992       .  S
O898        H899   0.992       .  S
C901        C902   1.400       .  A
C901        C906   1.413       .  A
C902        C903   1.395       .  A
C902        H907   1.084       .  S
C903        C904   1.411       .  A
C903        O908   1.374   1_545  S
C904        C905   1.399       .  A
C905        C906   1.401       .  A
C905        H909   1.084       .  S
C906        O910   1.372       .  S
O908        H912   0.992       .  S
O910        H911   0.992       .  S
C913        C914   1.404       .  A
C913        C918   1.409       .  A
C914        C915   1.408       .  A
C914        H919   1.084       .  S
C915        C916   1.414       .  A
C915        O920   1.372       .  S
C916        C917   1.406       .  A
C917        C918   1.398       .  A
C917        H921   1.083       .  S
C918        O922   1.373       .  S
O920        H924   0.992       .  S
O922        H923   0.992       .  S
C925        C926   1.399       .  A
C925        C930   1.408       .  A
C926        C927   1.396       .  A
C926        H931   1.084       .  S
C927        C928   1.409       .  A
C927        O932   1.373       .  S
C928        C929   1.402       .  A
C929        C930   1.401       .  A
C929        H933   1.084       .  S
C930        O934   1.371       .  S
O932        H936   0.992   1_545  S
O934        H935   0.992       .  S
C937        C938   1.404       .  A
C937        C942   1.411       .  A
C938        C939   1.400       .  A
C938        H943   1.084       .  S
C939        C940   1.412       .  A
C939        O944   1.373       .  S
C940        C941   1.405       .  A
C941        C942   1.403       .  A
C941        H945   1.084       .  S
C942        O946   1.372       .  S
O944        H948   0.992       .  S
O946        H947   0.992       .  S
C949        C950   1.400       .  A
C949        C954   1.399       .  A
C950        C951   1.405       .  A
C950        H955   1.082       .  S
C951        C952   1.413       .  A
C951        O956   1.358       .  S
C952        C953   1.425       .  A
C953        C954   1.402       .  A
C953        H957   1.080       .  S
C954        O958   1.372       .  S
O956        H960   0.990       .  S
O958        H959   0.992       .  S
C961        C962   1.408       .  A
C961        C966   1.415       .  A
C962        C963   1.410       .  A
C962        H967   1.083       .  S
C963        C964   1.414       .  A
C963        O968   1.372       .  S
C964        C965   1.404   1_655  A
C965        C966   1.406   1_455  A
C965        H969   1.076       .  S
C966        O970   1.372   1_655  S
O968        H972   0.992       .  S
O970        H971   0.992       .  S
C973        C974   1.403       .  A
C973        C978   1.402       .  A
C974        C975   1.400       .  A
C974        H979   1.076       .  S
C975        C976   1.406       .  A
C975        O980   1.371       .  S
C976        C977   1.413       .  A
C977        C978   1.400       .  A
C977        H981   1.084       .  S
C978        O982   1.372       .  S
O980        H984   0.992       .  S
O982        H983   0.992       .  S
C985        C986   1.400       .  A
C985        C990   1.403       .  A
C986        C987   1.398       .  A
C986        H991   1.084       .  S
C987        C988   1.405       .  A
C987        O992   1.372       .  S
C988        C989   1.399       .  A
C989        C990   1.390       .  A
C989        H993   1.084       .  S
C990        O994   1.372       .  S
O992        H996   0.992       .  S
O994        H995   0.990       .  S
C997        C998   1.412       .  A
C997       C1002   1.407       .  A
C998        C999   1.403       .  A
C998       H1003   1.083       .  S
C999       C1000   1.403       .  A
C999       O1004   1.372       .  S
C1000      C1001   1.407       .  A
C1001      C1002   1.393       .  A
C1001      H1005   1.083       .  S
C1002      O1006   1.372       .  S
O1004      H1008   0.992       .  S
O1006      H1007   0.992       .  S
C1009      C1010   1.410       .  A
C1009      C1014   1.401       .  A
C1010      C1011   1.406       .  A
C1010      H1015   1.084       .  S
C1011      C1012   1.404       .  A
C1011      O1016   1.371       .  S
C1012      C1013   1.405       .  A
C1013      C1014   1.391       .  A
C1013      H1017   1.084       .  S
C1014      O1018   1.370       .  S
O1016      H1020   0.992       .  S
O1018      H1019   0.991       .  S
C1021      C1022   1.401       .  A
C1021      C1026   1.414       .  A
C1022      C1023   1.397       .  A
C1022      H1027   1.084       .  S
C1023      C1024   1.408       .  A
C1023      O1028   1.372       .  S
C1024      C1025   1.393       .  A
C1025      C1026   1.391       .  A
C1025      H1029   1.084       .  S
C1026      O1030   1.375       .  S
O1028      H1032   0.992       .  S
O1030      H1031   0.992       .  S
C1033      C1034   1.405       .  A
C1033      C1038   1.398       .  A
C1034      C1035   1.395       .  A
C1034      H1039   1.079       .  S
C1035      C1036   1.405       .  A
C1035      O1040   1.371       .  S
C1036      C1037   1.412       .  A
C1037      C1038   1.393       .  A
C1037      H1041   1.084       .  S
C1038      O1042   1.372       .  S
O1040      H1044   0.992       .  S
O1042      H1043   0.992       .  S
C1045      C1046   1.397       .  A
C1045      C1050   1.410       .  A
C1046      C1047   1.399       .  A
C1046      H1051   1.084       .  S
C1047      C1048   1.415       .  A
C1047      O1052   1.372       .  S
C1048      C1049   1.399       .  A
C1049      C1050   1.395       .  A
C1049      H1053   1.084       .  S
C1050      O1054   1.373   1_455  S
O1052      H1056   0.992       .  S
O1054      H1055   0.992       .  S
C1057      C1058   1.402       .  A
C1057      C1062   1.411       .  A
C1058      C1059   1.401       .  A
C1058      H1063   1.084       .  S
C1059      C1060   1.404       .  A
C1059      O1064   1.375       .  S
C1060      C1061   1.399       .  A
C1061      C1062   1.398       .  A
C1061      H1065   1.084       .  S
C1062      O1066   1.374       .  S
O1064      H1068   0.992       .  S
O1066      H1067   0.992       .  S
C1069      C1070   1.404       .  A
C1069      C1074   1.414       .  A
C1070      C1071   1.409       .  A
C1070      H1075   1.083       .  S
C1071      C1072   1.418       .  A
C1071      O1076   1.373       .  S
C1072      C1073   1.406       .  A
C1073      C1074   1.397       .  A
C1073      H1077   1.081       .  S
C1074      O1078   1.371       .  S
O1076      H1080   0.992       .  S
O1078      H1079   0.992       .  S
C1081      C1082   1.404       .  A
C1081      C1086   1.407       .  A
C1082      C1083   1.405       .  A
C1082      H1087   1.082       .  S
C1083      C1084   1.415       .  A
C1083      O1088   1.371       .  S
C1084      C1085   1.410       .  A
C1085      C1086   1.400       .  A
C1085      H1089   1.083       .  S
C1086      O1090   1.371       .  S
O1088      H1092   0.992       .  S
O1090      H1091   0.992       .  S
C1093      C1094   1.405       .  A
C1093      C1098   1.406   1_554  A
C1094      C1095   1.403       .  A
C1094      H1099   1.083       .  S
C1095      C1096   1.407       .  A
C1095      O1100   1.371       .  S
C1096      C1097   1.400   1_554  A
C1097      C1098   1.392       .  A
C1097      H1101   1.084       .  S
C1098      O1102   1.370       .  S
O1100      H1104   0.992       .  S
O1102      H1103   0.992       .  S
C1105      C1106   1.397       .  A
C1105      C1110   1.410       .  A
C1106      C1107   1.395       .  A
C1106      H1111   1.084       .  S
C1107      C1108   1.415       .  A
C1107      O1112   1.372       .  S
C1108      C1109   1.400       .  A
C1109      C1110   1.396       .  A
C1109      H1113   1.083       .  S
C1110      O1114   1.374       .  S
O1112      H1116   0.992       .  S
O1114      H1115   0.992   1_455  S
C1117      C1118   1.405       .  A
C1117      C1122   1.414       .  A
C1118      C1119   1.411       .  A
C1118      H1123   1.083       .  S
C1119      C1120   1.418       .  A
C1119      O1124   1.362   1_455  S
C1120      C1121   1.423       .  A
C1121      C1122   1.426       .  A
C1121      H1125   1.082       .  S
C1122      O1126   1.370       .  S
O1124      H1128   0.993       .  S
O1126      H1127   0.992       .  S
C1129      C1130   1.402       .  A
C1129      C1134   1.405       .  A
C1130      C1131   1.403       .  A
C1130      H1135   1.083       .  S
C1131      C1132   1.407       .  A
C1131      O1136   1.371       .  S
C1132      C1133   1.399       .  A
C1133      C1134   1.394       .  A
C1133      H1137   1.084       .  S
C1134      O1138   1.371       .  S
O1136      H1140   0.992       .  S
O1138      H1139   0.991       .  S
C1141      C1142   1.405       .  A
C1141      C1146   1.409       .  A
C1142      C1143   1.402       .  A
C1142      H1147   1.084       .  S
C1143      C1144   1.408       .  A
C1143      O1148   1.372       .  S
C1144      C1145   1.398       .  A
C1145      C1146   1.399       .  A
C1145      H1149   1.081       .  S
C1146      O1150   1.373       .  S
O1148      H1152   0.992       .  S
O1150      H1151   0.992       .  S
C1153      C1154   1.402       .  A
C1153      C1158   1.409   1_554  A
C1154      C1155   1.403       .  A
C1154      H1159   1.081       .  S
C1155      C1156   1.411       .  A
C1155      O1160   1.372       .  S
C1156      C1157   1.410   1_554  A
C1157      C1158   1.411       .  A
C1157      H1161   1.083       .  S
C1158      O1162   1.371       .  S
O1160      H1164   0.992       .  S
O1162      H1163   0.992   1_556  S
C1165      C1166   1.406       .  A
C1165      C1170   1.412       .  A
C1166      C1167   1.401       .  A
C1166      H1171   1.083       .  S
C1167      C1168   1.407       .  A
C1167      O1172   1.372       .  S
C1168      C1169   1.400       .  A
C1169      C1170   1.400       .  A
C1169      H1173   1.084       .  S
C1170      O1174   1.374       .  S
O1172      H1176   0.992       .  S
O1174      H1175   0.992       .  S
C1177      C1178   1.406       .  A
C1177      C1182   1.412       .  A
C1178      C1179   1.395       .  A
C1178      H1183   1.084       .  S
C1179      C1180   1.404       .  A
C1179      O1184   1.373       .  S
C1180      C1181   1.398       .  A
C1181      C1182   1.398       .  A
C1181      H1185   1.084       .  S
C1182      O1186   1.372       .  S
O1184      H1188   0.992       .  S
O1186      H1187   0.992       .  S
C1189      C1190   1.401       .  A
C1189      C1194   1.409       .  A
C1190      C1191   1.401       .  A
C1190      H1195   1.084       .  S
C1191      C1192   1.410       .  A
C1191      O1196   1.372       .  S
C1192      C1193   1.399       .  A
C1193      C1194   1.394       .  A
C1193      H1197   1.084       .  S
C1194      O1198   1.372       .  S
O1196      H1200   0.992       .  S
O1198      H1199   0.992       .  S
C1201      C1202   1.399       .  A
C1201      C1206   1.413       .  A
C1202      C1203   1.392       .  A
C1202      H1207   1.084       .  S
C1203      C1204   1.413       .  A
C1203      O1208   1.372   1_545  S
C1204      C1205   1.401       .  A
C1205      C1206   1.402       .  A
C1205      H1209   1.083       .  S
C1206      O1210   1.372       .  S
O1208      H1212   0.992       .  S
O1210      H1211   0.992       .  S
C1213      C1214   1.406       .  A
C1213      C1218   1.407       .  A
C1214      C1215   1.392       .  A
C1214      H1219   1.084       .  S
C1215      C1216   1.401       .  A
C1215      O1220   1.372       .  S
C1216      C1217   1.405       .  A
C1217      C1218   1.403       .  A
C1217      H1221   1.084       .  S
C1218      O1222   1.372       .  S
O1220      H1224   0.992       .  S
O1222      H1223   0.992       .  S
C1225      C1226   1.398       .  A
C1225      C1230   1.411       .  A
C1226      C1227   1.398       .  A
C1226      H1231   1.084       .  S
C1227      C1228   1.415       .  A
C1227      O1232   1.374       .  S
C1228      C1229   1.405       .  A
C1229      C1230   1.406       .  A
C1229      H1233   1.084       .  S
C1230      O1234   1.371       .  S
O1232      H1236   0.992       .  S
O1234      H1235   0.992       .  S
C1237      C1238   1.399       .  A
C1237      C1242   1.411       .  A
C1238      C1239   1.397       .  A
C1238      H1243   1.084       .  S
C1239      C1240   1.412       .  A
C1239      O1244   1.372       .  S
C1240      C1241   1.400       .  A
C1241      C1242   1.397       .  A
C1241      H1245   1.081       .  S
C1242      O1246   1.374       .  S
O1244      H1248   0.992       .  S
O1246      H1247   0.992       .  S
C1249      C1250   1.399       .  A
C1249      C1254   1.418       .  A
C1250      C1251   1.407       .  A
C1250      H1255   1.083       .  S
C1251      C1252   1.419       .  A
C1251      O1256   1.378       .  S
C1252      C1253   1.396       .  A
C1253      C1254   1.395       .  A
C1253      H1257   1.084       .  S
C1254      O1258   1.372       .  S
O1256      H1260   0.992       .  S
O1258      H1259   0.992       .  S
C1261      C1262   1.403       .  A
C1261      C1266   1.407       .  A
C1262      C1263   1.399       .  A
C1262      H1267   1.084       .  S
C1263      C1264   1.405       .  A
C1263      O1268   1.371       .  S
C1264      C1265   1.399       .  A
C1265      C1266   1.395       .  A
C1265      H1269   1.084       .  S
C1266      O1270   1.373       .  S
O1268      H1272   0.992       .  S
O1270      H1271   0.992       .  S
C1273      C1274   1.409       .  A
C1273      C1278   1.407       .  A
C1274      C1275   1.399       .  A
C1274      H1279   1.084       .  S
C1275      C1276   1.403       .  A
C1275      O1280   1.371       .  S
C1276      C1277   1.408       .  A
C1277      C1278   1.396       .  A
C1277      H1281   1.084       .  S
C1278      O1282   1.372       .  S
O1280      H1284   0.992       .  S
O1282      H1283   0.992       .  S
C1285      C1286   1.413       .  A
C1285      C1290   1.410       .  A
C1286      C1287   1.408       .  A
C1286      H1291   1.083       .  S
C1287      C1288   1.406       .  A
C1287      O1292   1.371       .  S
C1288      C1289   1.408       .  A
C1289      C1290   1.399       .  A
C1289      H1293   1.083       .  S
C1290      O1294   1.373       .  S
O1292      H1296   0.992       .  S
O1294      H1295   0.992       .  S
C1297      C1298   1.400       .  A
C1297      C1302   1.414       .  A
C1298      C1299   1.395       .  A
C1298      H1303   1.084       .  S
C1299      C1300   1.413       .  A
C1299      O1304   1.374       .  S
C1300      C1301   1.402       .  A
C1301      C1302   1.403       .  A
C1301      H1305   1.083       .  S
C1302      O1306   1.372       .  S
O1304      H1308   0.992       .  S
O1306      H1307   0.992       .  S
C1309      C1310   1.399       .  A
C1309      C1314   1.404       .  A
C1310      C1311   1.397       .  A
C1310      H1315   1.079       .  S
C1311      C1312   1.410       .  A
C1311      O1316   1.372       .  S
C1312      C1313   1.410       .  A
C1313      C1314   1.399       .  A
C1313      H1317   1.084       .  S
C1314      O1318   1.372       .  S
O1316      H1320   0.992       .  S
O1318      H1319   0.992       .  S
C1321      C1322   1.407       .  A
C1321      C1326   1.415       .  A
C1322      C1323   1.396       .  A
C1322      H1327   1.082   1_565  S
C1323      C1324   1.409       .  A
C1323      O1328   1.370   1_565  S
C1324      C1325   1.405       .  A
C1325      C1326   1.407       .  A
C1325      H1329   1.084       .  S
C1326      O1330   1.373       .  S
O1328      H1332   0.992       .  S
O1330      H1331   0.992       .  S
C1333      C1334   1.407       .  A
C1333      C1338   1.402       .  A
C1334      C1335   1.402       .  A
C1334      H1339   1.080       .  S
C1335      C1336   1.410       .  A
C1335      O1340   1.371       .  S
C1336      C1337   1.416       .  A
C1337      C1338   1.400       .  A
C1337      H1341   1.084       .  S
C1338      O1342   1.372       .  S
O1340      H1344   0.992       .  S
O1342      H1343   0.992       .  S
C1345      C1346   1.402       .  A
C1345      C1350   1.415       .  A
C1346      C1347   1.402       .  A
C1346      H1351   1.084       .  S
C1347      C1348   1.409       .  A
C1347      O1352   1.370       .  S
C1348      C1349   1.397       .  A
C1349      C1350   1.399       .  A
C1349      H1353   1.084       .  S
C1350      O1354   1.374       .  S
O1352      H1356   0.992       .  S
O1354      H1355   0.992       .  S
C1357      C1358   1.406       .  A
C1357      C1362   1.415       .  A
C1358      C1359   1.394       .  A
C1358      H1363   1.083       .  S
C1359      C1360   1.405       .  A
C1359      O1364   1.370       .  S
C1360      C1361   1.404       .  A
C1361      C1362   1.409       .  A
C1361      H1365   1.083       .  S
C1362      O1366   1.371       .  S
O1364      H1368   0.991       .  S
O1366      H1367   0.992       .  S
C1369      C1370   1.402       .  A
C1369      C1374   1.404       .  A
C1370      C1371   1.397       .  A
C1370      H1375   1.084       .  S
C1371      C1372   1.405       .  A
C1371      O1376   1.372       .  S
C1372      C1373   1.402       .  A
C1373      C1374   1.395       .  A
C1373      H1377   1.084       .  S
C1374      O1378   1.372       .  S
O1376      H1380   0.991       .  S
O1378      H1379   0.991       .  S
C1381      C1382   1.409       .  A
C1381      C1386   1.408       .  A
C1382      C1383   1.407       .  A
C1382      H1387   1.083       .  S
C1383      C1384   1.408       .  A
C1383      O1388   1.372       .  S
C1384      C1385   1.404       .  A
C1385      C1386   1.385       .  A
C1385      H1389   1.082       .  S
C1386      O1390   1.372       .  S
O1388      H1392   0.992       .  S
O1390      H1391   0.992       .  S
C1393      C1394   1.402       .  A
C1393      C1398   1.414       .  A
C1394      C1395   1.395       .  A
C1394      H1399   1.084       .  S
C1395      C1396   1.410       .  A
C1395      O1400   1.373       .  S
C1396      C1397   1.402       .  A
C1397      C1398   1.407       .  A
C1397      H1401   1.084   1_565  S
C1398      O1402   1.373   1_565  S
O1400      H1404   0.992       .  S
O1402      H1403   0.992       .  S
