geometry optimzed in LAMMPS
_audit_creation_date              2020-11-30 
_audit_creation_method            'lammps2cif' 
_symmetry_space_group_name_H-M    'P1' 
_symmetry_Int_Tables_number       1 
_symmetry_cell_setting            triclinic 
loop_ 
_symmetry_equiv_pos_as_xyz 
  x,y,z 
_cell_length_a                    123.56459673 
_cell_length_b                    123.17883372760068 
_cell_length_c                    123.54371556788692 
_cell_angle_alpha                 89.88746273830826 
_cell_angle_beta                  89.93100154059965 
_cell_angle_gamma                 90.06606610200637 
loop_ 
_atom_site_label 
_atom_site_type_symbol 
_atom_site_fract_x 
_atom_site_fract_y 
_atom_site_fract_z 
_atom_site_charge 
N1          N  0.54152041  0.83544683  0.22233370    -0.26700
N2          N  0.54014375  0.82526183  0.21931316    -0.34500
C3          C  0.53001722  0.82394922  0.21560130     0.01700
C4          C  0.52468506  0.83376386  0.21644521     0.07700
C5          C  0.53220244  0.84088576  0.22077839    -0.05400
H6          H  0.52655765  0.81623312  0.21325262     0.08400
H7          H  0.53089565  0.84928339  0.22296583     0.09600
Cu8        Cu  0.55129610  0.81323284  0.22245348     0.44200
Cu9        Cu  0.55599590  0.84091845  0.22890127     0.42000
Cu10       Cu  0.57596189  0.81993178  0.23643408     0.43900
N11         N  0.56125773  0.80181798  0.22950048    -0.34100
N12         N  0.57020046  0.80406671  0.23490905    -0.28300
C13         C  0.57392863  0.79482150  0.23945374    -0.04400
C14         C  0.56691213  0.78642449  0.23677173     0.07800
C15         C  0.55903308  0.79120704  0.23044142     0.01600
H16         H  0.58092957  0.79435314  0.24467586     0.09300
H17         H  0.55186703  0.78737972  0.22717832     0.08300
N18         N  0.57897245  0.83662740  0.23650470    -0.35500
N19         N  0.57174428  0.84410553  0.23387291    -0.27700
C20         C  0.57642064  0.85395768  0.23434839    -0.02900
C21         C  0.58711472  0.85267880  0.23741073     0.05700
C22         C  0.58843226  0.84158137  0.23873967     0.03800
H23         H  0.57234636  0.86147096  0.23238337     0.08900
H24         H  0.59579260  0.83737860  0.24093500     0.07700
N25         N  0.66585080  0.95289170  0.22393282    -0.26700
N26         N  0.67622691  0.95110853  0.22194740    -0.34500
C27         C  0.68063812  0.96008640  0.21761255     0.01700
C28         C  0.67276866  0.96800688  0.21702940     0.07700
C29         C  0.66348328  0.96319909  0.22112366    -0.05400
H30         H  0.68919370  0.96111618  0.21602503     0.08400
H31         H  0.65571437  0.96703830  0.22239338     0.09600
Cu32       Cu  0.68500151  0.93820435  0.22812301     0.44200
Cu33       Cu  0.65567819  0.94143731  0.23116135     0.42000
Cu34       Cu  0.67076113  0.92270554  0.24773227     0.43900
N35         N  0.69275744  0.92930617  0.24004506    -0.34100
N36         N  0.68740781  0.92428205  0.24784604    -0.28300
C37         C  0.69446155  0.92080663  0.25537039    -0.04400
C38         C  0.70476926  0.92370397  0.25206714     0.07800
C39         C  0.70339827  0.92903781  0.24229908     0.01600
H40         H  0.69223104  0.91662861  0.26275465     0.09300
H41         H  0.70959504  0.93302947  0.23753813     0.08300
N42         N  0.65458747  0.92069606  0.24399373    -0.35500
N43         N  0.64889867  0.92747355  0.23795748    -0.27700
C44         C  0.63905833  0.92308090  0.23616155    -0.02900
C45         C  0.63864344  0.91301008  0.24120914     0.05700
C46         C  0.64862155  0.91183445  0.24612289     0.03800
H47         H  0.63292218  0.92664868  0.23103202     0.08900
H48         H  0.65156045  0.90484257  0.25053143     0.07700
N49         N  0.31384302  0.82008511  0.08022388    -0.26700
N50         N  0.30336402  0.81959724  0.07808868    -0.34500
C51         C  0.30165788  0.82262603  0.06778658     0.01700
C52         C  0.31150972  0.82497448  0.06306968     0.07700
C53         C  0.31911757  0.82318397  0.07113504    -0.05400
H54         H  0.29384959  0.82252887  0.06382836     0.08400
H55         H  0.32780697  0.82402224  0.07043472     0.09600
Cu56       Cu  0.29180179  0.81328055  0.08849696     0.44200
Cu57       Cu  0.32000566  0.81669076  0.09567017     0.42000
Cu58       Cu  0.29949773  0.80589767  0.11496447     0.43900
N59         N  0.28168660  0.80459658  0.09873077    -0.34100
N60         N  0.28445960  0.80173773  0.10864635    -0.28300
C61         C  0.27640160  0.79576024  0.11302291    -0.04400
C62         C  0.26819030  0.79477165  0.10542296     0.07800
C63         C  0.27186842  0.80050093  0.09647258     0.01600
H64         H  0.27661806  0.79219153  0.12102848     0.09300
H65         H  0.26781425  0.80150078  0.08878493     0.08300
N66         N  0.31510595  0.81071671  0.11909025    -0.35500
N67         N  0.32259227  0.81433610  0.11229091    -0.27700
C68         C  0.33169957  0.81645856  0.11793568    -0.02900
C69         C  0.32981814  0.81410146  0.12877136     0.05700
C70         C  0.31921992  0.81051580  0.12915000     0.03800
H71         H  0.33910782  0.81954792  0.11440858     0.08900
H72         H  0.31480113  0.80783102  0.13623258     0.07700
N73         N  0.42922933  0.82745838  0.20785417    -0.26700
N74         N  0.43060101  0.82818555  0.21842967    -0.34500
C75         C  0.44095608  0.83078291  0.22049296     0.01700
C76         C  0.44641083  0.83156372  0.21074747     0.07700
C77         C  0.43875367  0.82935861  0.20288584    -0.05400
H78         H  0.44443622  0.83125440  0.22851131     0.08400
H79         H  0.44006485  0.82886765  0.19424084     0.09600
Cu80       Cu  0.41895951  0.82336323  0.22949874     0.44200
Cu81       Cu  0.41448265  0.82328119  0.20105255     0.42000
Cu82       Cu  0.39364297  0.81253710  0.21944709     0.43900
N83         N  0.40816280  0.81460159  0.23892364    -0.34100
N84         N  0.39899573  0.81037663  0.23536432    -0.28300
C85         C  0.39470170  0.80411156  0.24326121    -0.04400
C86         C  0.40156288  0.80436474  0.25215498     0.07800
C87         C  0.40996465  0.81115017  0.24907372     0.01600
H88         H  0.38743289  0.79929277  0.24238949     0.09300
H89         H  0.41717732  0.81304953  0.25364213     0.08300
N90         N  0.39120084  0.81566841  0.20297302    -0.35500
N91         N  0.39881705  0.81943934  0.19642104    -0.27700
C92         C  0.39474299  0.82045054  0.18638988    -0.02900
C93         C  0.38403628  0.81719194  0.18655132     0.05700
C94         C  0.38204895  0.81422138  0.19721587     0.03800
H95         H  0.39927300  0.82339669  0.17948180     0.08900
H96         H  0.37454151  0.81115582  0.20054769     0.07700
N97         N  0.29540323  0.83761456  0.96924007    -0.26700
N98         N  0.29592344  0.82691730  0.96996120    -0.34500
C99         C  0.29963770  0.82415622  0.97982983     0.01700
C100        C  0.30139560  0.83355618  0.98569314     0.07700
C101        C  0.29857541  0.84193621  0.97874027    -0.05400
H102        H  0.30023469  0.81590779  0.98279347     0.08400
H103        H  0.29853754  0.85052329  0.98055831     0.09600
Cu104      Cu  0.28929053  0.81662582  0.95844062     0.44200
Cu105      Cu  0.28967642  0.84560179  0.95545997     0.42000
Cu106      Cu  0.27181375  0.82952325  0.93853819     0.43900
N107        N  0.27808691  0.80828107  0.94909350    -0.34100
N108        N  0.27101310  0.81303592  0.94260027    -0.28300
C109        C  0.26389664  0.80550031  0.93911609    -0.04400
C110        C  0.26679495  0.79553105  0.94346610     0.07800
C111        C  0.27583748  0.79761153  0.94969461     0.01600
H112        H  0.25714700  0.80714246  0.93379177     0.09300
H113        H  0.28013023  0.79188860  0.95476462     0.08300
N114        N  0.27654560  0.84541281  0.93476197    -0.35500
N115        N  0.28331875  0.85112423  0.94078376    -0.27700
C116        C  0.28537545  0.86064861  0.93579953    -0.02900
C117        C  0.27958144  0.86103838  0.92620026     0.05700
C118        C  0.27405525  0.85122163  0.92583867     0.03800
H119        H  0.29073126  0.86683635  0.93893758     0.08900
H120        H  0.26879509  0.84838901  0.91944697     0.07700
N121        N  0.29077836  0.95797667  0.84346669    -0.26700
N122        N  0.28969623  0.95708454  0.83286063    -0.34500
C123        C  0.29437941  0.96559977  0.82799515     0.01700
C124        C  0.29863923  0.97238326  0.83581131     0.07700
C125        C  0.29619969  0.96729256  0.84559166    -0.05400
H126        H  0.29406758  0.96702167  0.81936379     0.08400
H127        H  0.29794293  0.97029192  0.85362623     0.09600
Cu128      Cu  0.28012522  0.94587122  0.82497373     0.44200
Cu129      Cu  0.28407779  0.94637107  0.85403329     0.42000
Cu130      Cu  0.26187396  0.93106601  0.84092647     0.43900
N131        N  0.26665743  0.93847039  0.81841565    -0.34100
N132        N  0.25927997  0.93362595  0.82446832    -0.28300
C133        C  0.25077449  0.93094004  0.81818710    -0.04400
C134        C  0.25302965  0.93416502  0.80765566     0.07800
C135        C  0.26318159  0.93888627  0.80812289     0.01600
H136        H  0.24349723  0.92698471  0.82106787     0.09300
H137        H  0.26749099  0.94283683  0.80157935     0.08300
N138        N  0.26829474  0.92749551  0.85611494    -0.35500
N139        N  0.27636333  0.93273572  0.86085859    -0.27700
C140        C  0.27907828  0.92733120  0.86999363    -0.02900
C141        C  0.27242650  0.91826918  0.87100759     0.05700
C142        C  0.26569528  0.91872779  0.86207610     0.03800
H143        H  0.28567067  0.92960871  0.87527400     0.08900
H144        H  0.25963527  0.91282737  0.85978265     0.07700
N145        N  0.31541432  0.06312202  0.80813317    -0.26700
N146        N  0.30914942  0.05956605  0.80024595    -0.34500
C147        C  0.30776968  0.04883066  0.80127796     0.01700
C148        C  0.31331050  0.04535066  0.81033643     0.07700
C149        C  0.31805671  0.05464361  0.81458207    -0.05400
H150        H  0.30296772  0.04391888  0.79584393     0.08400
H151        H  0.32330380  0.05513733  0.82156454     0.09600
Cu152      Cu  0.30219431  0.06936425  0.78863992     0.44200
Cu153      Cu  0.32039499  0.07930753  0.80841380     0.42000
Cu154      Cu  0.30679147  0.09781897  0.78841159     0.43900
N155        N  0.29353452  0.07986443  0.77895500    -0.34100
N156        N  0.29483563  0.09050524  0.77893468    -0.28300
C157        C  0.28742397  0.09493391  0.77221903    -0.04400
C158        C  0.28121531  0.08660030  0.76784708     0.07800
C159        C  0.28537331  0.07720248  0.77232501     0.01600
H160        H  0.28655058  0.10354485  0.77073718     0.09300
H161        H  0.28250580  0.06899823  0.77109058     0.08300
N162        N  0.32026259  0.10180229  0.79786558    -0.35500
N163        N  0.32516174  0.09517640  0.80476532    -0.27700
C164        C  0.33406628  0.10012926  0.80863900    -0.02900
C165        C  0.33480315  0.11036644  0.80406436     0.05700
C166        C  0.32588637  0.11116573  0.79733150     0.03800
H167        H  0.33966061  0.09646678  0.81429345     0.08900
H168        H  0.32383291  0.11792134  0.79211810     0.07700
N169        N  0.43844195  0.18029556  0.83678961    -0.26700
N170        N  0.43923459  0.19083676  0.83867501    -0.34500
C171        C  0.44896926  0.19299147  0.84301000     0.01700
C172        C  0.45470279  0.18341058  0.84371324     0.07700
C173        C  0.44782723  0.17551116  0.83965193    -0.05400
H174        H  0.45199910  0.20106937  0.84463553     0.08400
H175        H  0.44964347  0.16699862  0.83852645     0.09600
Cu176      Cu  0.42849567  0.20229122  0.83280785     0.44200
Cu177      Cu  0.42479257  0.17317976  0.82974259     0.42000
Cu178      Cu  0.40684819  0.19268971  0.81645159     0.43900
N179        N  0.41988006  0.21226879  0.82244328    -0.34100
N180        N  0.41198867  0.20874244  0.81616372    -0.28300
C181        C  0.40887749  0.21685391  0.80952726    -0.04400
C182        C  0.41520535  0.22589823  0.81171333     0.07800
C183        C  0.42206107  0.22266652  0.81996364     0.01600
H184        H  0.40279745  0.21606622  0.80329089     0.09300
H185        H  0.42849020  0.22737117  0.82359763     0.08300
N186        N  0.40346020  0.17625284  0.81814090    -0.35500
N187        N  0.40988499  0.16907629  0.82285266    -0.27700
C188        C  0.40500791  0.15927017  0.82262694    -0.02900
C189        C  0.39504357  0.16036206  0.81756321     0.05700
C190        C  0.39438621  0.17124554  0.81483963     0.03800
H191        H  0.40839538  0.15193056  0.82604222     0.08900
H192        H  0.38776637  0.17530984  0.81080461     0.07700
N193        N  0.67693654  0.19930883  0.96790945    -0.26700
N194        N  0.68762721  0.19993385  0.96773661    -0.34500
C195        C  0.69156287  0.19571694  0.97698038     0.01700
C196        C  0.68296269  0.19243522  0.98337153     0.07700
C197        C  0.67379981  0.19490097  0.97740926    -0.05400
H198        H  0.70002503  0.19578171  0.97923157     0.08400
H199        H  0.66546943  0.19382823  0.97990302     0.09600
Cu200      Cu  0.69636275  0.20843782  0.95606757     0.44200
Cu201      Cu  0.66717388  0.20495399  0.95533266     0.42000
Cu202      Cu  0.68065452  0.22317446  0.93639837     0.43900
N203        N  0.70288050  0.22039033  0.94607197    -0.34100
N204        N  0.69700498  0.22631338  0.93934959    -0.28300
C205        C  0.70331560  0.23417810  0.93508163    -0.04400
C206        C  0.71368541  0.23302022  0.93919734     0.07800
C207        C  0.71310574  0.22417349  0.94609202     0.01600
H208        H  0.70057257  0.24026095  0.92938721     0.09300
H209        H  0.71953808  0.22100811  0.95112240     0.08300
N210        N  0.66474869  0.21770721  0.93455485    -0.35500
N211        N  0.65982434  0.21105325  0.94139303    -0.27700
C212        C  0.64983519  0.20881932  0.93760409    -0.02900
C213        C  0.64837721  0.21432585  0.92791368     0.05700
C214        C  0.65802141  0.21987593  0.92626872     0.03800
H215        H  0.64412107  0.20343996  0.94153775     0.08900
H216        H  0.66011478  0.22497681  0.91944418     0.07700
N217        N  0.54872967  0.19523108  0.85084740    -0.26700
N218        N  0.54825384  0.19453860  0.84018573    -0.34500
C219        C  0.53883040  0.18997268  0.83728258     0.01700
C220        C  0.53291634  0.18782191  0.84652469     0.07700
C221        C  0.53942203  0.19127566  0.85501505    -0.05400
H222        H  0.53611255  0.18913792  0.82900203     0.08400
H223        H  0.53738256  0.19127962  0.86353224     0.09600
Cu224      Cu  0.55899555  0.20212553  0.82988875     0.44200
Cu225      Cu  0.56195080  0.20229022  0.85874827     0.42000
Cu226      Cu  0.57908562  0.21949409  0.84102922     0.43900
N227        N  0.56741927  0.21333208  0.82077005    -0.34100
N228        N  0.57475805  0.22001808  0.82474903    -0.28300
C229        C  0.57817899  0.22668647  0.81676325    -0.04400
C230        C  0.57259012  0.22407896  0.80737640     0.07800
C231        C  0.56586110  0.21557705  0.81026665     0.01600
H232        H  0.58406171  0.23311406  0.81778200     0.09300
H233        H  0.56008932  0.21140126  0.80518151     0.08300
N234        N  0.58249248  0.21578569  0.85713788    -0.35500
N235        N  0.57655290  0.20948758  0.86350852    -0.27700
C236        C  0.58172279  0.20826879  0.87305751    -0.02900
C237        C  0.59133997  0.21409367  0.87267430     0.05700
C238        C  0.59149030  0.21875411  0.86247138     0.03800
H239        H  0.57877926  0.20334669  0.87969781     0.08900
H240        H  0.59784816  0.22371945  0.85901992     0.07700
N241        N  0.70765442  0.05586070  0.19756930    -0.26700
N242        N  0.70530930  0.05736514  0.20790138    -0.34500
C243        C  0.69949153  0.04886370  0.21152826     0.01700
C244        C  0.69825988  0.04158049  0.20311244     0.07700
C245        C  0.70352802  0.04628017  0.19439023    -0.05400
H246        H  0.69716149  0.04764586  0.21988823     0.08400
H247        H  0.70468832  0.04278462  0.18644661     0.09600
Cu248      Cu  0.71235024  0.06940499  0.21721010     0.44200
Cu249      Cu  0.71711527  0.06648180  0.18853170     0.42000
Cu250      Cu  0.73351385  0.08504875  0.20408021     0.43900
N251        N  0.72382788  0.07834603  0.22554384    -0.34100
N252        N  0.73198152  0.08350039  0.22085448    -0.28300
C253        C  0.73863221  0.08732533  0.22860522    -0.04400
C254        C  0.73438435  0.08451309  0.23862560     0.07800
C255        C  0.72499091  0.07885987  0.23634796     0.01600
H256        H  0.74601692  0.09179121  0.22705158     0.09300
H257        H  0.71961329  0.07500047  0.24210773     0.08300
N258        N  0.73171909  0.08606038  0.18729339    -0.35500
N259        N  0.72573646  0.07922002  0.18162886    -0.27700
C260        C  0.72521203  0.08269410  0.17130357    -0.02900
C261        C  0.73108675  0.09223753  0.17038380     0.05700
C262        C  0.73515081  0.09407908  0.18069478     0.03800
H263        H  0.72037412  0.07888788  0.16508253     0.08900
H264        H  0.73973629  0.10105278  0.18337344     0.07700
N265        N  0.71059192  0.17272574  0.07353689    -0.26700
N266        N  0.70858072  0.18327418  0.07384545    -0.34500
C267        C  0.70375460  0.18629796  0.06456837     0.01700
C268        C  0.70280518  0.17729736  0.05798023     0.07700
C269        C  0.70728365  0.16883264  0.06388434    -0.05400
H270        H  0.70173584  0.19458800  0.06248527     0.08400
H271        H  0.70822485  0.16050430  0.06128560     0.09600
Cu272      Cu  0.71426103  0.19367716  0.08575063     0.44200
Cu273      Cu  0.71803901  0.16429841  0.08627943     0.42000
Cu274      Cu  0.73313300  0.18194243  0.10427998     0.43900
N275        N  0.72424477  0.20289944  0.09561240    -0.34100
N276        N  0.73175787  0.19855481  0.10186525    -0.28300
C277        C  0.73797682  0.20652551  0.10595375    -0.04400
C278        C  0.73408406  0.21636284  0.10220264     0.07800
C279        C  0.72535428  0.21376574  0.09569543     0.01600
H280        H  0.74494579  0.20523614  0.11109126     0.09300
H281        H  0.72063046  0.21930046  0.09080473     0.08300
N282        N  0.73112523  0.16541439  0.10689963    -0.35500
N283        N  0.72545859  0.15889229  0.10056936    -0.27700
C284        C  0.72498711  0.14897593  0.10524214    -0.02900
C285        C  0.73063812  0.14931666  0.11496200     0.05700
C286        C  0.73441934  0.15986917  0.11567090     0.03800
H287        H  0.72061446  0.14212971  0.10194885     0.08900
H288        H  0.73891718  0.16340773  0.12229079     0.07700
N289        N  0.30702512  0.70060872  0.46299896    -0.26700
N290        N  0.29639586  0.69941110  0.46343296    -0.34500
C291        C  0.29355399  0.69609636  0.47340790     0.01700
C292        C  0.30280418  0.69532181  0.47962984     0.07700
C293        C  0.31120499  0.69825166  0.47278519    -0.05400
H294        H  0.28528398  0.69523109  0.47617367     0.08400
H295        H  0.31967132  0.69903497  0.47487426     0.09600
Cu296      Cu  0.28591646  0.70504852  0.45166667     0.44200
Cu297      Cu  0.31514436  0.70636237  0.44937062     0.42000
Cu298      Cu  0.29808920  0.72238749  0.43170018     0.43900
N299        N  0.27725149  0.71627429  0.44273944    -0.34100
N300        N  0.28184504  0.72325160  0.43600997    -0.28300
C301        C  0.27444472  0.73067525  0.43299192    -0.04400
C302        C  0.26471746  0.72813546  0.43797913     0.07800
C303        C  0.26678654  0.71894086  0.44405071     0.01600
H304        H  0.27607777  0.73751759  0.42773271     0.09300
H305        H  0.26129411  0.71492200  0.44959164     0.08300
N306        N  0.31410345  0.71854207  0.42823125    -0.35500
N307        N  0.32033574  0.71255069  0.43455658    -0.27700
C308        C  0.32994583  0.71101992  0.42961470    -0.02900
C309        C  0.32974630  0.71632873  0.41970813     0.05700
C310        C  0.31958131  0.72101900  0.41914925     0.03800
H311        H  0.33651458  0.70627690  0.43293971     0.08900
H312        H  0.31627973  0.72567445  0.41249722     0.07700
N313        N  0.43636245  0.71645343  0.34679019    -0.26700
N314        N  0.43904624  0.72458767  0.34032432    -0.34500
C315        C  0.44890203  0.72280966  0.33616955     0.01700
C316        C  0.45278083  0.71305508  0.34011003     0.07700
C317        C  0.44464252  0.70925637  0.34694612    -0.05400
H318        H  0.45271711  0.72803683  0.33024163     0.08400
H319        H  0.44446761  0.70153997  0.35113951     0.09600
Cu320      Cu  0.42880522  0.73686131  0.33537450     0.44200
Cu321      Cu  0.42079231  0.71543917  0.35360365     0.42000
Cu322      Cu  0.40103394  0.73347398  0.33911239     0.43900
N323        N  0.41761702  0.74621290  0.32719080    -0.34100
N324        N  0.40708609  0.74464267  0.32799511    -0.28300
C325        C  0.40199954  0.75125309  0.32090373    -0.04400
C326        C  0.40980283  0.75729221  0.31545185     0.07800
C327        C  0.41957614  0.75386077  0.31969917     0.01600
H328        H  0.39332531  0.75163838  0.31981832     0.09300
H329        H  0.42758211  0.75647378  0.31727957     0.08300
N330        N  0.39751255  0.72358898  0.35234661    -0.35500
N331        N  0.40437643  0.71733298  0.35773963    -0.27700
C332        C  0.39915131  0.71305715  0.36637196    -0.02900
C333        C  0.38856602  0.71684389  0.36641163     0.05700
C334        C  0.38787423  0.72343609  0.35736586     0.03800
H335        H  0.40289364  0.70789628  0.37238963     0.08900
H336        H  0.38097921  0.72816727  0.35477716     0.07700
N337        N  0.30409601  0.56163399  0.70133588    -0.26700
N338        N  0.30278982  0.56274368  0.71190291    -0.34500
C339        C  0.30697261  0.55412751  0.71701298     0.01700
C340        C  0.31106977  0.54701221  0.70942778     0.07700
C341        C  0.30913388  0.55204184  0.69949799    -0.05400
H342        H  0.30637999  0.55282810  0.72565492     0.08400
H343        H  0.31087050  0.54879489  0.69155730     0.09600
Cu344      Cu  0.29347605  0.57438849  0.71945708     0.44200
Cu345      Cu  0.29806342  0.57331261  0.69039954     0.42000
Cu346      Cu  0.27660056  0.59003493  0.70320690     0.43900
N347        N  0.28074134  0.58310783  0.72585960    -0.34100
N348        N  0.27386231  0.58844481  0.71967390    -0.28300
C349        C  0.26584152  0.59242924  0.72589557    -0.04400
C350        C  0.26791100  0.58953037  0.73653565     0.07800
C351        C  0.27742078  0.58362740  0.73620164     0.01600
H352        H  0.25907385  0.59712364  0.72291557     0.09300
H353        H  0.28140837  0.57964509  0.74291130     0.08300
N354        N  0.28306521  0.59275440  0.68794977    -0.35500
N355        N  0.29080286  0.58704105  0.68320286    -0.27700
C356        C  0.29345680  0.59202584  0.67379652    -0.02900
C357        C  0.28715158  0.60131341  0.67268381     0.05700
C358        C  0.28066956  0.60141456  0.68180551     0.03800
H359        H  0.29978375  0.58932568  0.66837958     0.08900
H360        H  0.27482455  0.60753336  0.68406235     0.07700
N361        N  0.29284821  0.68213647  0.57488958    -0.26700
N362        N  0.29587661  0.69240825  0.57433486    -0.34500
C363        C  0.29840932  0.69492690  0.56407680     0.01700
C364        C  0.29673708  0.68586550  0.55775690     0.07700
C365        C  0.29315006  0.67787298  0.56483929    -0.05400
H366        H  0.30052307  0.70299326  0.56130138     0.08400
H367        H  0.29077727  0.66966752  0.56281823     0.09600
Cu368      Cu  0.29373684  0.70328005  0.58674808     0.44200
Cu369      Cu  0.28832196  0.67512239  0.58959752     0.42000
Cu370      Cu  0.28022627  0.69486255  0.61078612     0.43900
N371        N  0.28552430  0.71388718  0.59662316    -0.34100
N372        N  0.28017946  0.71097903  0.60542844    -0.28300
C373        C  0.27452191  0.71962686  0.60904641    -0.04400
C374        C  0.27634320  0.72828206  0.60203049     0.07800
C375        C  0.28336079  0.72429273  0.59429972     0.01600
H376        H  0.26903200  0.71944767  0.61587090     0.09300
H377        H  0.28626832  0.72847027  0.58715311     0.08300
N378        N  0.28252550  0.67821790  0.61335239    -0.35500
N379        N  0.28561097  0.67120995  0.60583333    -0.27700
C380        C  0.28692175  0.66137553  0.61044845    -0.02900
C381        C  0.28445165  0.66217183  0.62135535     0.05700
C382        C  0.28166174  0.67295354  0.62287959     0.03800
H383        H  0.28944292  0.65416702  0.60614698     0.08900
H384        H  0.27935993  0.67675892  0.63042121     0.07700
N385        N  0.43925254  0.32910134  0.73312569    -0.26700
N386        N  0.44252976  0.32366904  0.74175462    -0.34500
C387        C  0.45312615  0.32155637  0.74085620     0.01700
C388        C  0.45681504  0.32568185  0.73112563     0.07700
C389        C  0.44778026  0.33041081  0.72635901    -0.05400
H390        H  0.45770447  0.31685327  0.74666501     0.08400
H391        H  0.44743268  0.33446718  0.71859314     0.09600
Cu392      Cu  0.43240665  0.31744905  0.75356566     0.44200
Cu393      Cu  0.42316539  0.33425633  0.73168086     0.42000
Cu394      Cu  0.40404784  0.31965584  0.74960815     0.43900
N395        N  0.42141076  0.30751150  0.76139921    -0.34100
N396        N  0.41091155  0.30773966  0.75942094    -0.28300
C397        C  0.40618578  0.29925477  0.76447677    -0.04400
C398        C  0.41412534  0.29351026  0.76996645     0.07800
C399        C  0.42365750  0.29901759  0.76784879     0.01600
H400        H  0.39765317  0.29732821  0.76406212     0.09300
H401        H  0.43172915  0.29667681  0.77029527     0.08300
N402        N  0.40015792  0.33343272  0.74058165    -0.35500
N403        N  0.40699980  0.33875366  0.73423070    -0.27700
C404        C  0.40203824  0.34771876  0.73041506    -0.02900
C405        C  0.39159040  0.34806796  0.73451589     0.05700
C406        C  0.39070192  0.33884879  0.74090306     0.03800
H407        H  0.40586227  0.35369583  0.72524429     0.08900
H408        H  0.38382143  0.33642779  0.74576486     0.07700
N409        N  0.31968122  0.45222442  0.72669650    -0.26700
N410        N  0.31271288  0.45605405  0.73387094    -0.34500
C411        C  0.31212351  0.46688807  0.73287250     0.01700
C412        C  0.31890548  0.47012352  0.72457292     0.07700
C413        C  0.32354458  0.46061055  0.72075661    -0.05400
H414        H  0.30691112  0.47202611  0.73768850     0.08400
H415        H  0.32944830  0.45987144  0.71432977     0.09600
Cu416      Cu  0.30341929  0.44658720  0.74420045     0.44200
Cu417      Cu  0.32379592  0.43573434  0.72610260     0.42000
Cu418      Cu  0.30532127  0.41799370  0.74165830     0.43900
N419        N  0.29287828  0.43603968  0.75196733    -0.34100
N420        N  0.29319012  0.42540700  0.75066682    -0.28300
C421        C  0.28499221  0.42087173  0.75630271    -0.04400
C422        C  0.27932009  0.42908027  0.76146506     0.07800
C423        C  0.28456993  0.43857813  0.75851107     0.01600
H424        H  0.28337688  0.41224736  0.75672447     0.09300
H425        H  0.28240997  0.44677307  0.76077592     0.08300
N426        N  0.31965299  0.41287905  0.73444289    -0.35500
N427        N  0.32645930  0.41917151  0.72900878    -0.27700
C428        C  0.33539860  0.41335275  0.72661618    -0.02900
C429        C  0.33414759  0.40293090  0.73075217     0.05700
C430        C  0.32404675  0.40296770  0.73559351     0.03800
H431        H  0.34244609  0.41660494  0.72253798     0.08900
H432        H  0.32033647  0.39640338  0.74009670     0.07700
N433        N  0.66678473  0.30729167  0.57859409    -0.26700
N434        N  0.67706925  0.31022731  0.57877377    -0.34500
C435        C  0.67973501  0.31468306  0.56920091     0.01700
C436        C  0.67074063  0.31440949  0.56257557     0.07700
C437        C  0.66267037  0.30960990  0.56875606    -0.05400
H438        H  0.68784601  0.31712244  0.56693580     0.08400
H439        H  0.65452248  0.30768049  0.56620017     0.09600
Cu440      Cu  0.68758058  0.30558004  0.59089508     0.44200
Cu441      Cu  0.65937400  0.29985988  0.59184718     0.42000
Cu442      Cu  0.67770876  0.28816933  0.61223129     0.43900
N443        N  0.69745851  0.29568383  0.60008108    -0.34100
N444        N  0.69404342  0.28897837  0.60772723    -0.28300
C445        C  0.70239954  0.28258960  0.61077009    -0.04400
C446        C  0.71140239  0.28537239  0.60459777     0.07800
C447        C  0.70792077  0.29371890  0.59798371     0.01600
H448        H  0.70177729  0.27596319  0.61649565     0.09300
H449        H  0.71247558  0.29766325  0.59160539     0.08300
N450        N  0.66090781  0.28956111  0.61417465    -0.35500
N451        N  0.65435790  0.29379538  0.60681762    -0.27700
C452        C  0.64424508  0.29416645  0.61088084    -0.02900
C453        C  0.64435779  0.28996375  0.62128770     0.05700
C454        C  0.65507076  0.28708465  0.62307454     0.03800
H455        H  0.63736201  0.29755010  0.60665814     0.08900
H456        H  0.65847143  0.28379487  0.63044394     0.07700
N457        N  0.54157660  0.29413211  0.69780243    -0.26700
N458        N  0.53836826  0.28780618  0.70585364    -0.34500
C459        C  0.52857747  0.29096747  0.70927377     0.01700
C460        C  0.52526289  0.29967096  0.70308747     0.07700
C461        C  0.53367868  0.30148700  0.69581467    -0.05400
H462        H  0.52438492  0.28748979  0.71615038     0.08400
H463        H  0.53430206  0.30805405  0.69002188     0.09600
Cu464      Cu  0.54771594  0.27621617  0.71339489     0.44200
Cu465      Cu  0.55720889  0.29270085  0.69114634     0.42000
Cu466      Cu  0.57561574  0.27580193  0.70815817     0.43900
N467        N  0.55838866  0.26780614  0.72305583    -0.34100
N468        N  0.56896930  0.26813996  0.72163392    -0.28300
C469        C  0.57377779  0.26273139  0.72982485    -0.04400
C470        C  0.56573934  0.25872437  0.73659503     0.07800
C471        C  0.55611101  0.26208514  0.73202441     0.01600
H472        H  0.58241928  0.26167467  0.73070028     0.09300
H473        H  0.54803765  0.26075374  0.73515723     0.08300
N474        N  0.57965482  0.28258803  0.69323477    -0.35500
N475        N  0.57323992  0.28856028  0.68703256    -0.27700
C476        C  0.57862223  0.29102946  0.67781468    -0.02900
C477        C  0.58885842  0.28637391  0.67825401     0.05700
C478        C  0.58916157  0.28112260  0.68815226     0.03800
H479        H  0.57527414  0.29574627  0.67123257     0.08900
H480        H  0.59577577  0.27638620  0.69139577     0.07700
N481        N  0.68777673  0.45378297  0.34814301    -0.26700
N482        N  0.68609007  0.45330958  0.33758392    -0.34500
C483        C  0.68195835  0.46280550  0.33419212     0.01700
C484        C  0.68112595  0.46967868  0.34298112     0.07700
C485        C  0.68491437  0.46370977  0.35170522    -0.05400
H486        H  0.68052812  0.46485679  0.32579547     0.08400
H487        H  0.68591361  0.46650649  0.35994000     0.09600
Cu488      Cu  0.69177818  0.44101011  0.32769389     0.44200
Cu489      Cu  0.69470662  0.44113848  0.35694266     0.42000
Cu490      Cu  0.70944259  0.42178196  0.34053414     0.43900
N491        N  0.70230363  0.43113460  0.31916176    -0.34100
N492        N  0.70933957  0.42463305  0.32394621    -0.28300
C493        C  0.71634451  0.42091435  0.31648302    -0.04400
C494        C  0.71346549  0.42515680  0.30651845     0.07800
C495        C  0.70451066  0.43156950  0.30850065     0.01600
H496        H  0.72323880  0.41580290  0.31824148     0.09300
H497        H  0.70046195  0.43685051  0.30279015     0.08300
N498        N  0.70706321  0.42002103  0.35710916    -0.35500
N499        N  0.70165455  0.42703596  0.36312720    -0.27700
C500        C  0.70106078  0.42319664  0.37333012    -0.02900
C501        C  0.70632818  0.41327701  0.37375707     0.05700
C502        C  0.71004878  0.41155472  0.36331057     0.03800
H503        H  0.69685826  0.42720639  0.37988064     0.08900
H504        H  0.71436554  0.40453884  0.36032442     0.07700
N505        N  0.69331844  0.33284584  0.47097363    -0.26700
N506        N  0.69188689  0.32220170  0.47076074    -0.34500
C507        C  0.68737216  0.31898586  0.48013695     0.01700
C508        C  0.68600694  0.32799256  0.48664949     0.07700
C509        C  0.68989725  0.33664313  0.48060636    -0.05400
H510        H  0.68589442  0.31060570  0.48233151     0.08400
H511        H  0.69046736  0.34503090  0.48312761     0.09600
Cu512      Cu  0.69801110  0.31207630  0.45887163     0.44200
Cu513      Cu  0.70040284  0.34158847  0.45835159     0.42000
Cu514      Cu  0.71634261  0.32475805  0.44035073     0.43900
N515        N  0.70845313  0.30338468  0.44904536    -0.34100
N516        N  0.71570128  0.30808511  0.44270929    -0.28300
C517        C  0.72224098  0.30041741  0.43855905    -0.04400
C518        C  0.71888470  0.29039833  0.44243223     0.07800
C519        C  0.71009307  0.29259345  0.44901201     0.01600
H520        H  0.72906075  0.30205159  0.43330207     0.09300
H521        H  0.70562901  0.28685292  0.45393349     0.08300
N522        N  0.71362735  0.34119832  0.43786884    -0.35500
N523        N  0.70767123  0.34739940  0.44424877    -0.27700
C524        C  0.70654810  0.35724279  0.43957550    -0.02900
C525        C  0.71203701  0.35718168  0.42976664     0.05700
C526        C  0.71645278  0.34689186  0.42902603     0.03800
H527        H  0.70166724  0.36374836  0.44283018     0.08900
H528        H  0.72093733  0.34356816  0.42228326     0.07700
N529        N  0.66749631  0.56275449  0.32013196    -0.26700
N530        N  0.67805040  0.56245926  0.32196775    -0.34500
C531        C  0.68077704  0.55252218  0.32554322     0.01700
C532        C  0.67157484  0.54616507  0.32583015     0.07700
C533        C  0.66330085  0.55286305  0.32227793    -0.05400
H534        H  0.68896256  0.54996678  0.32732439     0.08400
H535        H  0.65485526  0.55072155  0.32136715     0.09600
Cu536      Cu  0.68883313  0.57477630  0.31806864     0.44200
Cu537      Cu  0.65927721  0.57670400  0.31496733     0.42000
Cu538      Cu  0.67712944  0.59736313  0.30439310     0.43900
N539        N  0.69800240  0.58610498  0.30966948    -0.34100
N540        N  0.69353690  0.59411202  0.30413435    -0.28300
C541        C  0.70112074  0.59887048  0.29793114    -0.04400
C542        C  0.71086807  0.59367474  0.29971459     0.07800
C543        C  0.70861626  0.58564500  0.30724928     0.01600
H544        H  0.69952294  0.60524452  0.29211387     0.09300
H545        H  0.71403981  0.57931745  0.30997941     0.08300
N546        N  0.66064447  0.59955988  0.30628083    -0.35500
N547        N  0.65396459  0.59213885  0.31020763    -0.27700
C548        C  0.64391282  0.59641171  0.31064272    -0.02900
C549        C  0.64434601  0.60700953  0.30677091     0.05700
C550        C  0.65509257  0.60866673  0.30409629     0.03800
H551        H  0.63685085  0.59214051  0.31360351     0.08900
H552        H  0.65868061  0.61601179  0.30087830     0.07700
N553        N  0.53629419  0.67900630  0.30464905    -0.26700
N554        N  0.53391395  0.68521928  0.29624440    -0.34500
C555        C  0.52394740  0.68927587  0.29744956     0.01700
C556        C  0.51966943  0.68563350  0.30713019     0.07700
C557        C  0.52772369  0.67904433  0.31151474    -0.05400
H558        H  0.52037071  0.69508628  0.29194204     0.08400
H559        H  0.52755837  0.67500586  0.31929580     0.09600
Cu560      Cu  0.54468851  0.69065790  0.28466581     0.44200
Cu561      Cu  0.55169565  0.67185288  0.30614146     0.42000
Cu562      Cu  0.57201836  0.68786724  0.29100073     0.43900
N563        N  0.55632505  0.70074391  0.27809782    -0.34100
N564        N  0.56655624  0.70023180  0.28107908    -0.28300
C565        C  0.57193646  0.70875562  0.27685368    -0.04400
C566        C  0.56469033  0.71489800  0.27088105     0.07800
C567        C  0.55486933  0.70954837  0.27183987     0.01600
H568        H  0.58041334  0.71046126  0.27821159     0.09300
H569        H  0.54711149  0.71218484  0.26876950     0.08300
N570        N  0.57507362  0.67315121  0.29850309    -0.35500
N571        N  0.56790940  0.66711485  0.30376287    -0.27700
C572        C  0.57271691  0.65766983  0.30657118    -0.02900
C573        C  0.58336121  0.65783264  0.30290034     0.05700
C574        C  0.58450285  0.66779370  0.29786020     0.03800
H575        H  0.56870919  0.65109407  0.31079344     0.08900
H576        H  0.59157628  0.67085843  0.29368820     0.07700
N577        N  0.79161303  0.05796910  0.35084520    -0.26700
N578        N  0.79407163  0.05836837  0.34042941    -0.34500
C579        C  0.79794445  0.04865701  0.33733583     0.01700
C580        C  0.79776768  0.04174849  0.34617292     0.07700
C581        C  0.79366521  0.04790348  0.35459727    -0.05400
H582        H  0.79996290  0.04654493  0.32907830     0.08400
H583        H  0.79200550  0.04518626  0.36276536     0.09600
Cu584      Cu  0.78988744  0.07119670  0.33033934     0.44200
Cu585      Cu  0.78504977  0.07105957  0.35920705     0.42000
Cu586      Cu  0.77185722  0.09093910  0.34214950     0.43900
N587        N  0.78083874  0.08212807  0.32129076    -0.34100
N588        N  0.77358897  0.08873266  0.32559067    -0.28300
C589        C  0.76773901  0.09328214  0.31760022    -0.04400
C590        C  0.77162411  0.08948553  0.30780914     0.07800
C591        C  0.77994241  0.08246941  0.31044512     0.01600
H592        H  0.76096367  0.09869634  0.31884104     0.09300
H593        H  0.78441438  0.07732950  0.30493850     0.08300
N594        N  0.77397009  0.09288109  0.35869350    -0.35500
N595        N  0.77906716  0.08577791  0.36489253    -0.27700
C596        C  0.78038340  0.09008781  0.37481108    -0.02900
C597        C  0.77586309  0.10037596  0.37487157     0.05700
C598        C  0.77181927  0.10183867  0.36452225     0.03800
H599        H  0.78467371  0.08617246  0.38136925     0.08900
H600        H  0.76816942  0.10911844  0.36125753     0.07700
N601        N  0.79772125  0.18704241  0.46611384    -0.26700
N602        N  0.79689026  0.19768666  0.46504778    -0.34500
C603        C  0.80140657  0.20257578  0.47359038     0.01700
C604        C  0.80532230  0.19473859  0.48057697     0.07700
C605        C  0.80287973  0.18491653  0.47554990    -0.05400
H606        H  0.80122185  0.21125122  0.47485279     0.08400
H607        H  0.80430614  0.17686134  0.47873957     0.09600
Cu608      Cu  0.78784755  0.20567435  0.45352879     0.44200
Cu609      Cu  0.79063013  0.17650030  0.45476118     0.42000
Cu610      Cu  0.76889148  0.19062803  0.43921271     0.43900
N611        N  0.77504797  0.21296094  0.44572100    -0.34100
N612        N  0.76734300  0.20728476  0.44098209    -0.28300
C613        C  0.75939009  0.21408099  0.43785825    -0.04400
C614        C  0.76239457  0.22454072  0.44070193     0.07800
C615        C  0.77236499  0.22351497  0.44563528     0.01600
H616        H  0.75203015  0.21161283  0.43381262     0.09300
H617        H  0.77709431  0.22990220  0.44933873     0.08300
N618        N  0.77410483  0.17485165  0.43653799    -0.35500
N619        N  0.78192276  0.16970341  0.44178432    -0.27700
C620        C  0.78351786  0.15998693  0.43697568    -0.02900
C621        C  0.77639700  0.15905735  0.42832004     0.05700
C622        C  0.77058400  0.16861971  0.42836895     0.03800
H623        H  0.78962932  0.15419391  0.43939663     0.08900
H624        H  0.76445665  0.17108718  0.42262582     0.07700
N625        N  0.93542923  0.82692238  0.31019885    -0.26700
N626        N  0.93721906  0.81758861  0.30527449    -0.34500
C627        C  0.94603874  0.81291329  0.30944740     0.01700
C628        C  0.95019868  0.81959923  0.31736174     0.07700
C629        C  0.94331095  0.82850911  0.31762845    -0.05400
H630        H  0.94916818  0.80512894  0.30688983     0.08400
H631        H  0.94378259  0.83539974  0.32302350     0.09600
Cu632      Cu  0.92773684  0.81105178  0.29327236     0.44200
Cu633      Cu  0.92170814  0.83607012  0.30651301     0.42000
Cu634      Cu  0.90318555  0.82323531  0.28586090     0.43900
N635        N  0.91753541  0.80411358  0.28211544    -0.34100
N636        N  0.90802376  0.80824701  0.27955487    -0.28300
C637        C  0.90302205  0.80139850  0.27264094    -0.04400
C638        C  0.90989355  0.79270015  0.27069152     0.07800
C639        C  0.91900167  0.79473501  0.27681132     0.01600
H640        H  0.89510237  0.80272740  0.26916602     0.09300
H641        H  0.92608716  0.78963728  0.27756086     0.08300
N642        N  0.90068740  0.83813684  0.29362191    -0.35500
N643        N  0.90707786  0.84254826  0.30103295    -0.27700
C644        C  0.90258230  0.85188195  0.30448597    -0.02900
C645        C  0.89297950  0.85350561  0.29896638     0.05700
C646        C  0.89206931  0.84464498  0.29213417     0.03800
H647        H  0.90607358  0.85710648  0.31058730     0.08900
H648        H  0.88551260  0.84291326  0.28660387     0.07700
N649        N  0.81225896  0.94890924  0.32447149    -0.26700
N650        N  0.80162225  0.94909466  0.32569418    -0.34500
C651        C  0.79871896  0.95864187  0.33008636     0.01700
C652        C  0.80793297  0.96484600  0.33153785     0.07700
C653        C  0.81636542  0.95844593  0.32785606    -0.05400
H654        H  0.79043344  0.96122748  0.33127591     0.08400
H655        H  0.82481080  0.96070828  0.32728877     0.09600
Cu656      Cu  0.79125118  0.93767887  0.31901406     0.44200
Cu657      Cu  0.82059398  0.93608376  0.31735413     0.42000
Cu658      Cu  0.80388166  0.91964340  0.29988930     0.43900
N659        N  0.78263202  0.92861179  0.30781693    -0.34100
N660        N  0.78732680  0.92255418  0.30034504    -0.28300
C661        C  0.77974844  0.91903530  0.29336753    -0.04400
C662        C  0.76979672  0.92299817  0.29666830     0.07800
C663        C  0.77192383  0.92898772  0.30588373     0.01600
H664        H  0.78140037  0.91412711  0.28630531     0.09300
H665        H  0.76622077  0.93381243  0.31045826     0.08300
N666        N  0.82024314  0.91676972  0.30248653    -0.35500
N667        N  0.82632970  0.92248348  0.30918487    -0.27700
C668        C  0.83621059  0.91787898  0.30976278    -0.02900
C669        C  0.83634749  0.90889115  0.30302058     0.05700
C670        C  0.82610044  0.90849187  0.29852659     0.03800
H671        H  0.84275086  0.92080104  0.31479040     0.08900
H672        H  0.82297799  0.90238215  0.29308017     0.07700
N673        N  0.03862618  0.80078452  0.34981130    -0.26700
N674        N  0.03569726  0.79304465  0.34300417    -0.34500
C675        C  0.02530637  0.79433564  0.34030942     0.01700
C676        C  0.02132008  0.80336706  0.34553068     0.07700
C677        C  0.03000369  0.80736584  0.35147946    -0.05400
H678        H  0.02105847  0.78921248  0.33461183     0.08400
H679        H  0.03001395  0.81440935  0.35669462     0.09600
Cu680      Cu  0.04561688  0.78157012  0.33608428     0.44200
Cu681      Cu  0.05431280  0.80127170  0.35639244     0.42000
Cu682      Cu  0.07299303  0.78301755  0.34122390     0.43900
N683        N  0.05659073  0.77340868  0.32655843    -0.34100
N684        N  0.06710703  0.77434062  0.32807274    -0.28300
C685        C  0.07231573  0.76905220  0.32006640    -0.04400
C686        C  0.06461872  0.76452255  0.31325295     0.07800
C687        C  0.05473985  0.76746394  0.31765199     0.01600
H688        H  0.08101642  0.76855379  0.31926210     0.09300
H689        H  0.04678883  0.76575419  0.31442027     0.08300
N690        N  0.07662888  0.79088727  0.35565840    -0.35500
N691        N  0.07021164  0.79747152  0.36119417    -0.27700
C692        C  0.07535243  0.80037775  0.37041376    -0.02900
C693        C  0.08540013  0.79530650  0.37067221     0.05700
C694        C  0.08585709  0.78941361  0.36117750     0.03800
H695        H  0.07187205  0.80545788  0.37663863     0.08900
H696        H  0.09234290  0.78414641  0.35855412     0.07700
N697        N  0.16709947  0.81296809  0.46881079    -0.26700
N698        N  0.17766568  0.81216083  0.46738164    -0.34500
C699        C  0.18281197  0.81642882  0.47591224     0.01700
C700        C  0.17519719  0.82007318  0.48326050     0.07700
C701        C  0.16526700  0.81778649  0.47846454    -0.05400
H702        H  0.19148118  0.81608890  0.47699804     0.08400
H703        H  0.15733962  0.81902208  0.48196605     0.09600
Cu704      Cu  0.18499589  0.80289752  0.45561084     0.44200
Cu705      Cu  0.15619426  0.80633592  0.45763952     0.42000
Cu706      Cu  0.16854212  0.78436144  0.44142294     0.43900
N707        N  0.19121148  0.78934146  0.44810970    -0.34100
N708        N  0.18507483  0.78187494  0.44352660    -0.28300
C709        C  0.19138924  0.77349043  0.44048437    -0.04400
C710        C  0.20200496  0.77594506  0.44321462     0.07800
C711        C  0.20156116  0.78605121  0.44800909     0.01600
H712        H  0.18850748  0.76626019  0.43644732     0.09300
H713        H  0.20822637  0.79055266  0.45148720     0.08300
N714        N  0.15331610  0.79104913  0.43855236    -0.35500
N715        N  0.14884728  0.79899374  0.44421407    -0.27700
C716        C  0.13953753  0.80196714  0.43933366    -0.02900
C717        C  0.13810398  0.79564465  0.43015734     0.05700
C718        C  0.14699621  0.78880346  0.42998773     0.03800
H719        H  0.13440307  0.80852983  0.44204332     0.08900
H720        H  0.14900437  0.78289302  0.42384774     0.07700
N721        N  0.18399778  0.95691408  0.69538481    -0.26700
N722        N  0.18323830  0.95851173  0.70595655    -0.34500
C723        C  0.17917874  0.96846189  0.70776483     0.01700
C724        C  0.17746291  0.97349658  0.69791245     0.07700
C725        C  0.18064852  0.96596480  0.69022367    -0.05400
H726        H  0.17834744  0.97208226  0.71569576     0.08400
H727        H  0.18081115  0.96708899  0.68153823     0.09600
Cu728      Cu  0.18986441  0.94844990  0.71773291     0.44200
Cu729      Cu  0.18993388  0.94262482  0.68845924     0.42000
Cu730      Cu  0.20538024  0.92650518  0.70722163     0.43900
N731        N  0.20080653  0.93975734  0.72711859    -0.34100
N732        N  0.20702357  0.93212175  0.72292473    -0.28300
C733        C  0.21431897  0.92897072  0.73034565    -0.04400
C734        C  0.21251988  0.93477437  0.73973581     0.07800
C735        C  0.20386582  0.94153595  0.73743776     0.01600
H736        H  0.22056983  0.92298902  0.72895494     0.09300
H737        H  0.20048391  0.94772100  0.74264384     0.08300
N738        N  0.20138735  0.92131188  0.69179305    -0.35500
N739        N  0.19567598  0.92709039  0.68481827    -0.27700
C740        C  0.19406790  0.92109228  0.67582859    -0.02900
C741        C  0.19901707  0.91106720  0.67726095     0.05700
C742        C  0.20357650  0.91155709  0.68747140     0.03800
H743        H  0.18953864  0.92379195  0.66884041     0.08900
H744        H  0.20801901  0.90520708  0.69157442     0.07700
N745        N  0.20117481  0.83355589  0.57510549    -0.26700
N746        N  0.20848941  0.82628927  0.57223775    -0.34500
C747        C  0.20779255  0.82446605  0.56156440     0.01700
C748        C  0.19954491  0.83075769  0.55741437     0.07700
C749        C  0.19544306  0.83642023  0.56622886    -0.05400
H750        H  0.21288337  0.81885943  0.55715482     0.08400
H751        H  0.18903668  0.84239883  0.56612848     0.09600
Cu752      Cu  0.21889704  0.81870811  0.58286777     0.44200
Cu753      Cu  0.20044770  0.83937385  0.59102328     0.42000
Cu754      Cu  0.21879034  0.82544051  0.61080032     0.43900
N755        N  0.22757414  0.81009491  0.59424523    -0.34100
N756        N  0.22739840  0.81217973  0.60472418    -0.28300
C757        C  0.23324392  0.80450222  0.60990610    -0.04400
C758        C  0.23732501  0.79735280  0.60223144     0.07800
C759        C  0.23354522  0.80120036  0.59242487     0.01600
H760        H  0.23437450  0.80410950  0.61858028     0.09300
H761        H  0.23470235  0.79758649  0.58453615     0.08300
N762        N  0.20961514  0.83933618  0.61402216    -0.35500
N763        N  0.20305498  0.84423976  0.60707969    -0.27700
C764        C  0.19881796  0.85309073  0.61188569    -0.02900
C765        C  0.20287950  0.85383824  0.62231445     0.05700
C766        C  0.20968646  0.84496208  0.62335926     0.03800
H767        H  0.19334796  0.85870987  0.60797288     0.08900
H768        H  0.21453045  0.84282388  0.63032791     0.07700
N769        N  0.93795272  0.21733186  0.69972372    -0.26700
N770        N  0.94035999  0.22562856  0.70603502    -0.34500
C771        C  0.95082617  0.22519558  0.70872912     0.01700
C772        C  0.95540217  0.21614161  0.70398041     0.07700
C773        C  0.94698343  0.21130446  0.69827757    -0.05400
H774        H  0.95461319  0.23080380  0.71427752     0.08400
H775        H  0.94731420  0.20381950  0.69372603     0.09600
Cu776      Cu  0.92936784  0.23629773  0.71261389     0.44200
Cu777      Cu  0.92212254  0.21495023  0.69431088     0.42000
Cu778      Cu  0.90182449  0.23013813  0.71098546     0.43900
N779        N  0.91807282  0.24383579  0.72227757    -0.34100
N780        N  0.90774197  0.24112526  0.72228670    -0.28300
C781        C  0.90264837  0.24669821  0.73018125    -0.04400
C782        C  0.91020857  0.25328135  0.73526768     0.07800
C783        C  0.91987999  0.25123267  0.73002085     0.01600
H784        H  0.89411919  0.24603433  0.73204970     0.09300
H785        H  0.92775212  0.25454994  0.73194620     0.08300
N786        N  0.89851456  0.22156613  0.69686450    -0.35500
N787        N  0.90565345  0.21641897  0.69072538    -0.27700
C788        C  0.90072506  0.21326590  0.68151395    -0.02900
C789        C  0.89001272  0.21658516  0.68188583     0.05700
C790        C  0.88892872  0.22173620  0.69175855     0.03800
H791        H  0.90478494  0.20930384  0.67484678     0.08900
H792        H  0.88184857  0.22592403  0.69475729     0.07700
N793        N  0.82210629  0.21879717  0.57224879    -0.26700
N794        N  0.81419784  0.22557736  0.56976293    -0.34500
C795        C  0.81229949  0.22512005  0.55909038     0.01700
C796        C  0.81919969  0.21758650  0.55455272     0.07700
C797        C  0.82531305  0.21365718  0.56313003    -0.05400
H798        H  0.80612615  0.22977349  0.55496140     0.08400
H799        H  0.83173021  0.20770191  0.56273662     0.09600
Cu800      Cu  0.80539000  0.23450032  0.58087167     0.44200
Cu801      Cu  0.82804231  0.21759620  0.58805759     0.42000
Cu802      Cu  0.81009793  0.23041713  0.60869002     0.43900
N803        N  0.79509510  0.24041251  0.59268299    -0.34100
N804        N  0.79643224  0.23849962  0.60311027    -0.28300
C805        C  0.78793204  0.24264449  0.60858660    -0.04400
C806        C  0.78097875  0.24746024  0.60118449     0.07800
C807        C  0.78582565  0.24587856  0.59120193     0.01600
H808        H  0.78690840  0.24220735  0.61727455     0.09300
H809        H  0.78269964  0.24822383  0.58336746     0.08300
N810        N  0.82526198  0.22375722  0.61173466    -0.35500
N811        N  0.83179917  0.21930945  0.60448717    -0.27700
C812        C  0.84110007  0.21646188  0.60944895    -0.02900
C813        C  0.84035281  0.21922007  0.62030257     0.05700
C814        C  0.83019931  0.22381366  0.62141035     0.03800
H815        H  0.84793168  0.21274654  0.60542445     0.08900
H816        H  0.82665231  0.22714462  0.62868439     0.07700
N817        N  0.04404293  0.19005008  0.73212355    -0.26700
N818        N  0.04239122  0.19736956  0.73974683    -0.34500
C819        C  0.03242454  0.20147937  0.73873785     0.01700
C820        C  0.02739363  0.19657235  0.73005996     0.07700
C821        C  0.03496895  0.18926285  0.72604888    -0.05400
H822        H  0.02930159  0.20803474  0.74364340     0.08400
H823        H  0.03419822  0.18429479  0.71888110     0.09600
Cu824      Cu  0.05406962  0.20330289  0.75001845     0.44200
Cu825      Cu  0.05929581  0.18292705  0.73015045     0.42000
Cu826      Cu  0.08137795  0.19891296  0.74357710     0.43900
N827        N  0.06631635  0.21222442  0.75693730    -0.34100
N828        N  0.07655974  0.21132276  0.75404382    -0.28300
C829        C  0.08234142  0.21904624  0.75922008    -0.04400
C830        C  0.07532357  0.22491333  0.76577683     0.07800
C831        C  0.06525902  0.22033086  0.76408625     0.01600
H832        H  0.09097751  0.22022259  0.75837772     0.09300
H833        H  0.05762981  0.22294159  0.76749932     0.08300
N834        N  0.08340194  0.18417137  0.73541312    -0.35500
N835        N  0.07562066  0.17833885  0.73085836    -0.27700
C836        C  0.07991823  0.16896603  0.72719933    -0.02900
C837        C  0.09089659  0.16887548  0.72953085     0.05700
C838        C  0.09277366  0.17866422  0.73471618     0.03800
H839        H  0.07533678  0.16260123  0.72328300     0.08900
H840        H  0.10035778  0.18150067  0.73804108     0.07700
N841        N  0.16688642  0.06864311  0.70759133    -0.26700
N842        N  0.17729658  0.06713823  0.70562405    -0.34500
C843        C  0.17891143  0.05685616  0.70242398     0.01700
C844        C  0.16909007  0.05151611  0.70253727     0.07700
C845        C  0.16162311  0.05918970  0.70593222    -0.05400
H846        H  0.18678158  0.05330566  0.70093011     0.08400
H847        H  0.15306750  0.05792914  0.70733074     0.09600
Cu848      Cu  0.18920051  0.07818897  0.70958622     0.44200
Cu849      Cu  0.16073948  0.08356026  0.71278875     0.42000
Cu850      Cu  0.18138070  0.10332728  0.72159853     0.43900
N851        N  0.19998982  0.08821557  0.71748750    -0.34100
N852        N  0.19728635  0.09756437  0.72195682    -0.28300
C853        C  0.20597216  0.10155983  0.72724307    -0.04400
C854        C  0.21444312  0.09424439  0.72615964     0.07800
C855        C  0.21032203  0.08590754  0.71991989     0.01600
H856        H  0.20593148  0.10889143  0.73205028     0.09300
H857        H  0.21439347  0.07848333  0.71764190     0.08300
N858        N  0.16481198  0.10662024  0.72043513    -0.35500
N859        N  0.15736299  0.09957951  0.71725099    -0.27700
C860        C  0.14761922  0.10452346  0.71727717    -0.02900
C861        C  0.14897647  0.11516902  0.72067108     0.05700
C862        C  0.15998126  0.11615858  0.72260775     0.03800
H863        H  0.14011481  0.10063789  0.71498361     0.08900
H864        H  0.16421482  0.12333421  0.72534185     0.07700
N865        N  0.78035358  0.33503758  0.07098865    -0.26700
N866        N  0.78312019  0.32465854  0.07123866    -0.34500
C867        C  0.78714730  0.32181858  0.06155432     0.01700
C868        C  0.78673195  0.33072489  0.05478742     0.07700
C869        C  0.78232365  0.33897627  0.06098346    -0.05400
H870        H  0.78952736  0.31362931  0.05937169     0.08400
H871        H  0.78054760  0.34716807  0.05838072     0.09600
Cu872      Cu  0.77935209  0.31395737  0.08365394     0.44200
Cu873      Cu  0.77385411  0.34321549  0.08427543     0.42000
Cu874      Cu  0.76225876  0.32469817  0.10398269     0.43900
N875        N  0.77074710  0.30417289  0.09428427    -0.34100
N876        N  0.76386620  0.30823085  0.10138683    -0.28300
C877        C  0.75814243  0.30009926  0.10587334    -0.04400
C878        C  0.76169319  0.29043690  0.10146524     0.07800
C879        C  0.76971209  0.29329713  0.09416351     0.01600
H880        H  0.75163639  0.30117804  0.11163839     0.09300
H881        H  0.77386593  0.28796612  0.08858721     0.08300
N882        N  0.76340252  0.34126328  0.10622098    -0.35500
N883        N  0.76788754  0.34813021  0.09930049    -0.27700
C884        C  0.76814985  0.35807360  0.10386379    -0.02900
C885        C  0.76351539  0.35735845  0.11408258     0.05700
C886        C  0.76059197  0.34660076  0.11524334     0.03800
H887        H  0.77156399  0.36522890  0.10008274     0.08900
H888        H  0.75704032  0.34280248  0.12230882     0.07700
N889        N  0.78101753  0.45244113  0.19785322    -0.26700
N890        N  0.78162798  0.45169801  0.20850861    -0.34500
C891        C  0.78582198  0.46095030  0.21247235     0.01700
C892        C  0.78795404  0.46786444  0.20391593     0.07700
C893        C  0.78469425  0.46227380  0.19476962    -0.05400
H894        H  0.78633032  0.46288952  0.22099539     0.08400
H895        H  0.78441355  0.46536338  0.18657199     0.09600
Cu896      Cu  0.77416608  0.43945982  0.21728661     0.44200
Cu897      Cu  0.77402580  0.44038111  0.18836876     0.42000
Cu898      Cu  0.75586021  0.42189005  0.20265493     0.43900
N899        N  0.76222389  0.43019749  0.22460699    -0.34100
N900        N  0.75500050  0.42438649  0.21925350    -0.28300
C901        C  0.74735554  0.42091401  0.22623412    -0.04400
C902        C  0.74999119  0.42464621  0.23646309     0.07800
C903        C  0.75948027  0.43044800  0.23512290     0.01600
H904        H  0.74029832  0.41622764  0.22398757     0.09300
H905        H  0.76369918  0.43512405  0.24120809     0.08300
N906        N  0.76028179  0.42010910  0.18652900    -0.35500
N907        N  0.76697911  0.42673438  0.18138325    -0.27700
C908        C  0.76891452  0.42275779  0.17143069    -0.02900
C909        C  0.76317492  0.41317517  0.17023844     0.05700
C910        C  0.75776241  0.41177583  0.17997151     0.03800
H911        H  0.77437156  0.42641501  0.16561877     0.08900
H912        H  0.75270324  0.40499140  0.18231050     0.07700
N913        N  0.93974391  0.32340135  0.84435670    -0.26700
N914        N  0.94099604  0.32403696  0.83373532    -0.34500
C915        C  0.95086457  0.32802491  0.83147976     0.01700
C916        C  0.95619759  0.32985014  0.84110379     0.07700
C917        C  0.94896822  0.32676289  0.84913409    -0.05400
H918        H  0.95413210  0.32895489  0.82339976     0.08400
H919        H  0.95033500  0.32688749  0.85777940     0.09600
Cu920      Cu  0.93012242  0.31803345  0.82254719     0.44200
Cu921      Cu  0.92540583  0.31801744  0.85165250     0.42000
Cu922      Cu  0.90618915  0.30573349  0.83251682     0.43900
N923        N  0.91988075  0.30907390  0.81282172    -0.34100
N924        N  0.91106646  0.30423054  0.81647652    -0.28300
C925        C  0.90673623  0.29822969  0.80845233    -0.04400
C926        C  0.91320059  0.29937390  0.79932135     0.07800
C927        C  0.92142654  0.30633423  0.80242368     0.01600
H928        H  0.89963692  0.29316139  0.80932133     0.09300
H929        H  0.92830891  0.30887180  0.79762647     0.08300
N930        N  0.90296783  0.30856019  0.84880556    -0.35500
N931        N  0.90976192  0.31294653  0.85583142    -0.27700
C932        C  0.90479218  0.31359402  0.86556072    -0.02900
C933        C  0.89440004  0.30939644  0.86457372     0.05700
C934        C  0.89359283  0.30631267  0.85384069     0.03800
H935        H  0.90846991  0.31688219  0.87278652     0.08900
H936        H  0.88665683  0.30269296  0.84991529     0.07700
N937        N  0.81137453  0.31431883  0.96296683    -0.26700
N938        N  0.80074657  0.31495979  0.96190661    -0.34500
C939        C  0.79639078  0.31830202  0.97129343     0.01700
C940        C  0.80462950  0.31969201  0.97871156     0.07700
C941        C  0.81403910  0.31708325  0.97317399    -0.05400
H942        H  0.78778839  0.31881382  0.97284833     0.08400
H943        H  0.82215117  0.31686001  0.97641143     0.09600
Cu944      Cu  0.79227003  0.30865586  0.94893718     0.44200
Cu945      Cu  0.82150152  0.30902502  0.95053824     0.42000
Cu946      Cu  0.80749344  0.29264628  0.93033295     0.43900
N947        N  0.78528318  0.29686908  0.93930615    -0.34100
N948        N  0.79095236  0.29023689  0.93311001    -0.28300
C949        C  0.78435882  0.28225378  0.92956993    -0.04400
C950        C  0.77403905  0.28410415  0.93363517     0.07800
C951        C  0.77495600  0.29345878  0.93971858     0.01600
H952        H  0.78691534  0.27551494  0.92458393     0.09300
H953        H  0.76874344  0.29709483  0.94471091     0.08300
N954        N  0.82338929  0.29831044  0.92863572    -0.35500
N955        N  0.82853955  0.30417359  0.93597598    -0.27700
C956        C  0.83834473  0.30698755  0.93204689    -0.02900
C957        C  0.83941369  0.30276694  0.92170429     0.05700
C958        C  0.82976408  0.29730273  0.91985372     0.03800
H959        H  0.84411409  0.31204783  0.93626960     0.08900
H960        H  0.82740496  0.29309402  0.91255391     0.07700
N961        N  0.05014277  0.33701672  0.83178250    -0.26700
N962        N  0.04935983  0.32646386  0.83358847    -0.34500
C963        C  0.03973104  0.32429683  0.83814030     0.01700
C964        C  0.03406446  0.33389818  0.83910315     0.07700
C965        C  0.04087626  0.34182998  0.83495435    -0.05400
H966        H  0.03676916  0.31621130  0.83988721     0.08400
H967        H  0.03913792  0.35039191  0.83407028     0.09600
Cu968      Cu  0.06028516  0.31510285  0.82793060     0.44200
Cu969      Cu  0.06380498  0.34400959  0.82483573     0.42000
Cu970      Cu  0.08316155  0.32445385  0.81316988     0.43900
N971        N  0.06990136  0.30489450  0.81877174    -0.34100
N972        N  0.07827900  0.30829478  0.81304754    -0.28300
C973        C  0.08215954  0.29992662  0.80719458    -0.04400
C974        C  0.07585613  0.29083540  0.80934726     0.07800
C975        C  0.06819111  0.29432610  0.81673871     0.01600
H976        H  0.08881615  0.30052904  0.80153592     0.09300
H977        H  0.06155271  0.28965720  0.82006311     0.08300
N978        N  0.08608638  0.34097519  0.81508649    -0.35500
N979        N  0.07914148  0.34804950  0.81916857    -0.27700
C980        C  0.08391911  0.35787080  0.81963994    -0.02900
C981        C  0.09437054  0.35692327  0.81569282     0.05700
C982        C  0.09543185  0.34611060  0.81287654     0.03800
H983        H  0.08014271  0.36507317  0.82290731     0.08900
H984        H  0.10256526  0.34217447  0.80967104     0.07700
N985        N  0.16949802  0.46019349  0.82781461    -0.26700
N986        N  0.17995774  0.46091753  0.82991183    -0.34500
C987        C  0.18223555  0.47100571  0.83332060     0.01700
C988        C  0.17279610  0.47698601  0.83319615     0.07700
C989        C  0.16486834  0.46993215  0.82957545    -0.05400
H990        H  0.19031128  0.47401369  0.83490611     0.08400
H991        H  0.15645103  0.47180232  0.82806828     0.09600
Cu992      Cu  0.19101632  0.44912838  0.82556172     0.44200
Cu993      Cu  0.16244082  0.44590059  0.82240259     0.42000
Cu994      Cu  0.18131824  0.42467782  0.81326747     0.43900
N995        N  0.20074901  0.43887248  0.81658704    -0.34100
N996        N  0.19729471  0.42990966  0.81185152    -0.28300
C997        C  0.20534853  0.42586613  0.80567450    -0.04400
C998        C  0.21424416  0.43270912  0.80653287     0.07800
C999        C  0.21099197  0.44083071  0.81352873     0.01600
H1000       H  0.20459720  0.41879631  0.80055294     0.09300
H1001       H  0.21556369  0.44794054  0.81586822     0.08300
N1002       N  0.16475627  0.42240661  0.81556250    -0.35500
N1003       N  0.15795979  0.43007766  0.81871464    -0.27700
C1004       C  0.14795209  0.42582576  0.81949694    -0.02900
C1005       C  0.14843823  0.41497012  0.81669381     0.05700
C1006       C  0.15922437  0.41309176  0.81424970     0.03800
H1007       H  0.14086758  0.43030586  0.82203129     0.08900
H1008       H  0.16284703  0.40550274  0.81177430     0.07700
N1009       N  0.18870177  0.68969361  0.96810479    -0.26700
N1010       N  0.18878975  0.70039917  0.96742357    -0.34500
C1011       C  0.18401618  0.70461887  0.97619966     0.01700
C1012       C  0.18087451  0.69626088  0.98298714     0.07700
C1013       C  0.18395948  0.68683617  0.97758405    -0.05400
H1014       H  0.18370055  0.71321778  0.97792507     0.08400
H1015       H  0.18320175  0.67858634  0.98050642     0.09600
Cu1016     Cu  0.19791493  0.70916418  0.95645050     0.44200
Cu1017     Cu  0.19602648  0.68021826  0.95602241     0.42000
Cu1018     Cu  0.21720792  0.69512456  0.94058029     0.43900
N1019       N  0.21109944  0.71681513  0.94950171    -0.34100
N1020       N  0.21877826  0.71158971  0.94420708    -0.28300
C1021       C  0.22668309  0.71870367  0.94158557    -0.04400
C1022       C  0.22370475  0.72889402  0.94534777     0.07800
C1023       C  0.21378707  0.72734784  0.95030416     0.01600
H1024       H  0.23391798  0.71666629  0.93709378     0.09300
H1025       H  0.20895940  0.73339884  0.95441114     0.08300
N1026       N  0.21156733  0.67960444  0.93677477    -0.35500
N1027       N  0.20388532  0.67431572  0.94212049    -0.27700
C1028       C  0.20171925  0.66498609  0.93684176    -0.02900
C1029       C  0.20833685  0.66433872  0.92778031     0.05700
C1030       C  0.21447581  0.67375319  0.92804550     0.03800
H1031       H  0.19562026  0.65918230  0.93932199     0.08900
H1032       H  0.22041789  0.67635599  0.92214816     0.07700
N1033       N  0.19618636  0.56922089  0.84497478    -0.26700
N1034       N  0.19617049  0.56862730  0.83428754    -0.34500
C1035       C  0.19150209  0.55923338  0.83127533     0.01700
C1036       C  0.18856571  0.55357455  0.84051183     0.07700
C1037       C  0.19167956  0.56013721  0.84904224    -0.05400
H1038       H  0.19102287  0.55638577  0.82301155     0.08400
H1039       H  0.19105688  0.55828905  0.85758386     0.09600
Cu1040     Cu  0.20446793  0.57942821  0.82438750     0.44200
Cu1041     Cu  0.20298746  0.58202531  0.85356203     0.42000
Cu1042     Cu  0.22222749  0.59807089  0.83851032     0.43900
N1043       N  0.21669846  0.58820274  0.81686469    -0.34100
N1044       N  0.22368772  0.59436750  0.82214435    -0.28300
C1045       C  0.23143037  0.59769816  0.81521207    -0.04400
C1046       C  0.22909170  0.59357181  0.80506822     0.07800
C1047       C  0.21968943  0.58761589  0.80640991     0.01600
H1048       H  0.23828283  0.60270192  0.81741116     0.09300
H1049       H  0.21564254  0.58273548  0.80036779     0.08300
N1050       N  0.21743461  0.60172556  0.85424510    -0.35500
N1051       N  0.21022053  0.59596705  0.85970308    -0.27700
C1052       C  0.20813230  0.60096631  0.86916547    -0.02900
C1053       C  0.21434724  0.61033328  0.86970824     0.05700
C1054       C  0.22017147  0.61050207  0.86011464     0.03800
H1055       H  0.20232497  0.59810809  0.87507845     0.08900
H1056       H  0.22568713  0.61676809  0.85739810     0.07700
N1057       N  0.81286879  0.55898662  0.22503094    -0.26700
N1058       N  0.80221510  0.55999130  0.22532584    -0.34500
C1059       C  0.79764994  0.55083065  0.22159310     0.01700
C1060       C  0.80577470  0.54360255  0.21888906     0.07700
C1061       C  0.81533598  0.54906330  0.22115529    -0.05400
H1062       H  0.78902897  0.54930674  0.22155581     0.08400
H1063       H  0.82347171  0.54591362  0.22042825     0.09600
Cu1064     Cu  0.79408451  0.57259167  0.23287872     0.44200
Cu1065     Cu  0.82341543  0.57094613  0.23074918     0.42000
Cu1066     Cu  0.81065960  0.58955621  0.24948268     0.43900
N1067       N  0.78790571  0.58236138  0.24503453    -0.34100
N1068       N  0.79415984  0.58789590  0.25171820    -0.28300
C1069       C  0.78808207  0.59187713  0.25981836    -0.04400
C1070       C  0.77747423  0.58884361  0.25802975     0.07800
C1071       C  0.77762088  0.58285132  0.24857926     0.01600
H1072       H  0.79118596  0.59648190  0.26658885     0.09300
H1073       H  0.77089459  0.57854823  0.24497284     0.08300
N1074       N  0.82632097  0.59141182  0.24385164    -0.35500
N1075       N  0.83105362  0.58474570  0.23693904    -0.27700
C1076       C  0.84073271  0.58895570  0.23411710    -0.02900
C1077       C  0.84209939  0.59875861  0.23946845     0.05700
C1078       C  0.83279762  0.59999829  0.24559183     0.03800
H1079       H  0.84614333  0.58538980  0.22822961     0.08900
H1080       H  0.83062172  0.60686672  0.25057618     0.07700
N1081       N  0.93642120  0.67848082  0.20963872    -0.26700
N1082       N  0.93712861  0.68885507  0.20697040    -0.34500
C1083       C  0.94690355  0.69078400  0.20258376     0.01700
C1084       C  0.95274122  0.68121856  0.20264765     0.07700
C1085       C  0.94586730  0.67357397  0.20722412    -0.05400
H1086       H  0.94982507  0.69873667  0.20025160     0.08400
H1087       H  0.94768464  0.66515062  0.20891284     0.09600
Cu1088     Cu  0.92577792  0.70036787  0.21145349     0.44200
Cu1089     Cu  0.92264547  0.67186820  0.21684674     0.42000
Cu1090     Cu  0.90303929  0.69161343  0.22741368     0.43900
N1091       N  0.91597432  0.71093465  0.22004304    -0.34100
N1092       N  0.90766068  0.70783230  0.22604132    -0.28300
C1093       C  0.90391610  0.71648312  0.23157399    -0.04400
C1094       C  0.91028969  0.72541110  0.22900476     0.07800
C1095       C  0.91780963  0.72155864  0.22165226     0.01600
H1096       H  0.89751310  0.71612830  0.23754020     0.09300
H1097       H  0.92452574  0.72599970  0.21817839     0.08300
N1098       N  0.90074735  0.67484417  0.22752941    -0.35500
N1099       N  0.90771229  0.66772040  0.22356625    -0.27700
C1100       C  0.90350594  0.65767294  0.22459709    -0.02900
C1101       C  0.89346627  0.65849583  0.22953266     0.05700
C1102       C  0.89201423  0.66949563  0.23128965     0.03800
H1103       H  0.90749750  0.65032147  0.22197787     0.08900
H1104       H  0.88503124  0.67336909  0.23488066     0.07700
N1105       N  0.04642996  0.69369138  0.20050035    -0.26700
N1106       N  0.04448263  0.69336714  0.21102060    -0.34500
C1107       C  0.03493229  0.68846210  0.21280749     0.01700
C1108       C  0.03047737  0.68569386  0.20295124     0.07700
C1109       C  0.03794403  0.68918889  0.19528143    -0.05400
H1110       H  0.03114721  0.68768838  0.22067517     0.08400
H1111       H  0.03714987  0.68871504  0.18657625     0.09600
Cu1112     Cu  0.05375681  0.70133539  0.22241822     0.44200
Cu1113     Cu  0.06063541  0.70058668  0.19418356     0.42000
Cu1114     Cu  0.07747588  0.71565812  0.21391650     0.43900
N1115       N  0.06214765  0.71182325  0.23239633    -0.34100
N1116       N  0.07091255  0.71722298  0.22943932    -0.28300
C1117       C  0.07395814  0.72374829  0.23766985    -0.04400
C1118       C  0.06665648  0.72240729  0.24613435     0.07800
C1119       C  0.05931382  0.71478722  0.24245235     0.01600
H1120       H  0.08073365  0.72930483  0.23736675     0.09300
H1121       H  0.05224130  0.71177964  0.24666772     0.08300
N1122       N  0.08197585  0.71247199  0.19789992    -0.35500
N1123       N  0.07598683  0.70710869  0.19080145    -0.27700
C1124       C  0.08152799  0.70636394  0.18140988    -0.02900
C1125       C  0.09146807  0.71149672  0.18261838     0.05700
C1126       C  0.09141511  0.71527033  0.19318213     0.03800
H1127       H  0.07854797  0.70230632  0.17425303     0.08900
H1128       H  0.09783177  0.71966072  0.19720926     0.07700
N1129       N  0.16634654  0.71245830  0.07732690    -0.26700
N1130       N  0.17380720  0.71940623  0.07400882    -0.34500
C1131       C  0.17600715  0.71767225  0.06350898     0.01700
C1132       C  0.16977328  0.70909676  0.05995030     0.07700
C1133       C  0.16371755  0.70592687  0.06892203    -0.05400
H1134       H  0.18175332  0.72233485  0.05878988     0.08400
H1135       H  0.15762190  0.69962536  0.06920422     0.09600
Cu1136     Cu  0.18097483  0.73080683  0.08389895     0.44200
Cu1137     Cu  0.16010871  0.71333511  0.09319455     0.42000
Cu1138     Cu  0.17449590  0.73255921  0.11198032     0.43900
N1139       N  0.18925251  0.74070124  0.09450471    -0.34100
N1140       N  0.18738819  0.74122347  0.10502146    -0.28300
C1141       C  0.19476562  0.74799201  0.10950041    -0.04400
C1142       C  0.20145548  0.75192669  0.10130384     0.07800
C1143       C  0.19765079  0.74711178  0.09196595     0.01600
H1144       H  0.19516915  0.74996907  0.11801611     0.09300
H1145       H  0.20090055  0.74800300  0.08387875     0.08300
N1146       N  0.16047500  0.72367922  0.11582664    -0.35500
N1147       N  0.15532564  0.71697933  0.10918937    -0.27700
C1148       C  0.14643994  0.71314023  0.11429158    -0.02900
C1149       C  0.14593328  0.71755621  0.12461251     0.05700
C1150       C  0.15499272  0.72418432  0.12526511     0.03800
H1151       H  0.14068857  0.70759703  0.11069245     0.08900
H1152       H  0.15735288  0.72919397  0.13204595     0.07700
C1153       C  0.11644426  0.71691623  0.16443102     0.16600
C1154       C  0.12632182  0.72039514  0.15993473    -0.32500
C1155       C  0.12865650  0.71738263  0.14920523     0.21000
C1156       C  0.12150745  0.71110772  0.14325669     0.03200
C1157       C  0.11163982  0.70761636  0.14776012    -0.22200
C1158       C  0.10926581  0.71070003  0.15845538     0.12300
S1159       S  0.11203664  0.71983480  0.17723509    -0.05900
C1160       C  0.10032386  0.71267273  0.17453673    -0.09300
C1161       C  0.10001476  0.70824493  0.16419385    -0.25900
S1162       S  0.12580740  0.70836560  0.13037290    -0.03100
C1163       C  0.13736413  0.71582437  0.13292648    -0.16600
C1164       C  0.13775025  0.72011897  0.14333451    -0.14600
H1165       H  0.13191051  0.72530202  0.16457441     0.20800
H1166       H  0.10602034  0.70276618  0.14309931     0.16800
H1167       H  0.09337149  0.70350186  0.16100284     0.19400
H1168       H  0.14430949  0.72502368  0.14645667     0.12700
C1169       C  0.98257657  0.68291451  0.19417694     0.16600
C1170       C  0.99265391  0.68642510  0.19026325    -0.32500
C1171       C  0.00196692  0.68250291  0.19544059     0.21000
C1172       C  0.00126907  0.67523904  0.20400841     0.03200
C1173       C  0.99120542  0.67132384  0.20757953    -0.22200
C1174       C  0.98188405  0.67541742  0.20254186     0.12300
S1175       S  0.97040557  0.68811645  0.19021361    -0.05900
C1176       C  0.96429360  0.68007062  0.19987584    -0.09300
C1177       C  0.97137477  0.67357318  0.20569141    -0.25900
S1178       S  0.01331234  0.67281307  0.21032637    -0.03100
C1179       C  0.01936550  0.68163992  0.20131194    -0.16600
C1180       C  0.01238414  0.68600647  0.19369218    -0.14600
H1181       H  0.99319238  0.69247054  0.18390936     0.20800
H1182       H  0.99063778  0.66585583  0.21443157     0.16800
H1183       H  0.96903651  0.66838788  0.21238763     0.19400
H1184       H  0.01464255  0.69212615  0.18780054     0.12700
C1185       C  0.86634466  0.61731931  0.23271229     0.16600
C1186       C  0.87566014  0.62223688  0.22839357    -0.32500
C1187       C  0.87790904  0.63298724  0.23145237     0.21000
C1188       C  0.87120257  0.63856178  0.23851986     0.03200
C1189       C  0.86199619  0.63359875  0.24295024    -0.22200
C1190       C  0.85972296  0.62289243  0.23985198     0.12300
S1191       S  0.86187011  0.60454337  0.22964736    -0.05900
C1192       C  0.85094665  0.60674557  0.23806834    -0.09300
C1193       C  0.85093584  0.61686516  0.24299627    -0.25900
S1194       S  0.87499468  0.65167724  0.24083552    -0.03100
C1195       C  0.88578644  0.64968290  0.23221956    -0.16600
C1196       C  0.88636310  0.63930544  0.22787725    -0.14600
H1197       H  0.88081847  0.61794379  0.22275517     0.20800
H1198       H  0.85671741  0.63796560  0.24842042     0.16800
H1199       H  0.84471694  0.61979438  0.24842623     0.19400
H1200       H  0.89246869  0.63660502  0.22220080     0.12700
C1201       C  0.17128230  0.70544068  0.01110606     0.16600
C1202       C  0.16858638  0.71177541  0.02010475    -0.32500
C1203       C  0.16923470  0.70694717  0.03034949     0.21000
C1204       C  0.17215523  0.69615932  0.03163050     0.03200
C1205       C  0.17482041  0.68975519  0.02255607    -0.22200
C1206       C  0.17441667  0.69469467  0.01225265     0.12300
S1207       S  0.17188904  0.71026499  0.99820687    -0.05900
C1208       C  0.17669776  0.69778795  0.99414379    -0.09300
C1209       C  0.17746642  0.69019362  0.00247352    -0.25900
S1210       S  0.17280795  0.69208061  0.04492468    -0.03100
C1211       C  0.16933281  0.70511389  0.04868118    -0.16600
C1212       C  0.16770745  0.71210902  0.04004969    -0.14600
H1213       H  0.16642832  0.72024731  0.01918303     0.20800
H1214       H  0.17741157  0.68141554  0.02351372     0.16800
H1215       H  0.18062492  0.68205530  0.00153983     0.19400
H1216       H  0.16581925  0.72065537  0.04085760     0.12700
C1217       C  0.20555596  0.64025231  0.90797192     0.16600
C1218       C  0.20253264  0.63079351  0.90240396    -0.32500
C1219       C  0.20857292  0.62790488  0.89320910     0.21000
C1220       C  0.21720807  0.63418206  0.88968662     0.03200
C1221       C  0.22022594  0.64363771  0.89524721    -0.22200
C1222       C  0.21420522  0.64651015  0.90445548     0.12300
S1223       S  0.19933711  0.64510707  0.91935131    -0.05900
C1224       C  0.20848685  0.65570309  0.91941944    -0.09300
C1225       C  0.21591111  0.65538287  0.91096167    -0.25900
S1226       S  0.22341685  0.62938003  0.87829652    -0.03100
C1227       C  0.21431113  0.61875480  0.87824936    -0.16600
C1228       C  0.20689270  0.61902192  0.88670614    -0.14600
H1229       H  0.19577391  0.62589098  0.90512946     0.20800
H1230       H  0.22697548  0.64854755  0.89251092     0.16800
H1231       H  0.22227600  0.66128692  0.90964796     0.19400
H1232       H  0.20051732  0.61311851  0.88797500     0.12700
C1233       C  0.18162095  0.52358108  0.84514578     0.16600
C1234       C  0.18147484  0.51277051  0.84866855    -0.32500
C1235       C  0.17682461  0.50503362  0.84179097     0.21000
C1236       C  0.17212609  0.50795628  0.83201963     0.03200
C1237       C  0.17227290  0.51878753  0.82849024    -0.22200
C1238       C  0.17730687  0.52647238  0.83519151     0.12300
S1239       S  0.18759287  0.53401031  0.85197734    -0.05900
C1240       C  0.18462606  0.54229672  0.84114148    -0.09300
C1241       C  0.17907704  0.53721143  0.83281145    -0.25900
S1242       S  0.16730734  0.49725190  0.82466217    -0.03100
C1243       C  0.17207435  0.48877639  0.83466761    -0.16600
C1244       C  0.17689543  0.49402326  0.84330442    -0.14600
H1245       H  0.18519002  0.51043113  0.85625521     0.20800
H1246       H  0.16897887  0.52105271  0.82068990     0.16800
H1247       H  0.17667966  0.54110441  0.82532496     0.19400
H1248       H  0.18065986  0.48995246  0.85010273     0.12700
C1249       C  0.11924850  0.37546745  0.81334347     0.16600
C1250       C  0.12963080  0.37977407  0.81189040    -0.32500
C1251       C  0.13117115  0.39077793  0.81424892     0.21000
C1252       C  0.12274417  0.39726741  0.81783341     0.03200
C1253       C  0.11231291  0.39295733  0.81926716    -0.22200
C1254       C  0.11078753  0.38189462  0.81697062     0.12300
S1255       S  0.11586970  0.36225551  0.81110228    -0.05900
C1256       C  0.10288743  0.36531678  0.81515371    -0.09300
C1257       C  0.10134197  0.37610206  0.81802923    -0.25900
S1258       S  0.12640300  0.41041264  0.82032815    -0.03100
C1259       C  0.13943452  0.40707768  0.81655174    -0.16600
C1260       C  0.14073588  0.39634000  0.81349514    -0.14600
H1261       H  0.13625144  0.37473688  0.80912014     0.20800
H1262       H  0.10571309  0.39797253  0.82212305     0.16800
H1263       H  0.09376690  0.37951273  0.82081344     0.19400
H1264       H  0.14828641  0.39273399  0.81090195     0.12700
C1265       C  0.98558780  0.33960229  0.83932154     0.16600
C1266       C  0.99553032  0.34392018  0.83589441    -0.32500
C1267       C  0.00498449  0.33947555  0.84034090     0.21000
C1268       C  0.00453262  0.33119827  0.84796111     0.03200
C1269       C  0.99459052  0.32719366  0.85170463    -0.22200
C1270       C  0.98514871  0.33153745  0.84716611     0.12300
S1271       S  0.97333845  0.34274451  0.83377348    -0.05900
C1272       C  0.96756723  0.33320070  0.84221077    -0.09300
C1273       C  0.97478516  0.32798053  0.84901401    -0.25900
S1274       S  0.01680605  0.32583506  0.85125453    -0.03100
C1275       C  0.02263751  0.33484214  0.84230154    -0.16600
C1276       C  0.01540658  0.34177117  0.83722660    -0.14600
H1277       H  0.99589821  0.35006695  0.82962331     0.20800
H1278       H  0.99424120  0.32058180  0.85748724     0.16800
H1279       H  0.97265877  0.32142433  0.85447404     0.19400
H1280       H  0.01757294  0.34757830  0.83099408     0.12700
C1281       C  0.86961905  0.30430871  0.88279983     0.16600
C1282       C  0.85952627  0.30124559  0.88695932    -0.32500
C1283       C  0.85742162  0.30339889  0.89788215     0.21000
C1284       C  0.86500229  0.30843713  0.90443125     0.03200
C1285       C  0.87518184  0.31149684  0.90025893    -0.22200
C1286       C  0.87731147  0.30929390  0.88927079     0.12300
S1287       S  0.87355387  0.30233302  0.86974379    -0.05900
C1288       C  0.88580451  0.30823057  0.87287900    -0.09300
C1289       C  0.88667600  0.31157081  0.88360462    -0.25900
S1290       S  0.86065166  0.31038688  0.91747150    -0.03100
C1291       C  0.84853662  0.30427179  0.91401698    -0.16600
C1292       C  0.84803849  0.30097902  0.90330091    -0.14600
H1293       H  0.85355009  0.29733717  0.88187951     0.20800
H1294       H  0.88115283  0.31541460  0.90533382     0.16800
H1295       H  0.89373819  0.31543471  0.88706404     0.19400
H1296       H  0.84113447  0.29707324  0.89958517     0.12700
C1297       C  0.78916628  0.49874919  0.20689495     0.16600
C1298       C  0.78678015  0.50980065  0.20808541    -0.32500
C1299       C  0.79527344  0.51679207  0.21093126     0.21000
C1300       C  0.80572743  0.51300076  0.21239935     0.03200
C1301       C  0.80811543  0.50191651  0.21126223    -0.22200
C1302       C  0.79957772  0.49488559  0.20855703     0.12300
S1303       S  0.77990606  0.48896017  0.20372951    -0.05900
C1304       C  0.79011870  0.47954891  0.20478046    -0.09300
C1305       C  0.80015051  0.48380515  0.20744483    -0.25900
S1306       S  0.81483487  0.52284185  0.21594581    -0.03100
C1307       C  0.80439495  0.53212425  0.21566001    -0.16600
C1308       C  0.79445731  0.52772379  0.21279728    -0.14600
H1309       H  0.77862145  0.51280257  0.20697242     0.20800
H1310       H  0.81623487  0.49888873  0.21256407     0.16800
H1311       H  0.80741081  0.47903381  0.20862406     0.19400
H1312       H  0.78696655  0.53223876  0.21224752     0.12700
C1313       C  0.78919290  0.33148685  0.02385579     0.16600
C1314       C  0.78742431  0.33246671  0.01267403    -0.32500
C1315       C  0.79497095  0.32755956  0.00571769     0.21000
C1316       C  0.80394595  0.32211517  0.00967573     0.03200
C1317       C  0.80561299  0.32097350  0.02084863    -0.22200
C1318       C  0.79796451  0.32570513  0.02779880     0.12300
S1319       S  0.78096801  0.33674422  0.03367693    -0.05900
C1320       C  0.78927400  0.33079231  0.04315786    -0.09300
C1321       C  0.79798522  0.32515661  0.03887918    -0.25900
S1322       S  0.81223258  0.31691120  0.99990026    -0.03100
C1323       C  0.80334805  0.32185792  0.99036899    -0.16600
C1324       C  0.79451453  0.32734691  0.99462876    -0.14600
H1325       H  0.78052147  0.33672960  0.00957627     0.20800
H1326       H  0.81242111  0.31657562  0.02394325     0.16800
H1327       H  0.80390072  0.32084496  0.04359946     0.19400
H1328       H  0.78812041  0.33091217  0.98989635     0.12700
C1329       C  0.75816238  0.37622538  0.13815636     0.16600
C1330       C  0.75474618  0.38082034  0.14793386    -0.32500
C1331       C  0.75941626  0.39070282  0.15101884     0.21000
C1332       C  0.76712027  0.39583086  0.14463620     0.03200
C1333       C  0.77049183  0.39126344  0.13478940    -0.22200
C1334       C  0.76582561  0.38134090  0.13170468     0.12300
S1335       S  0.75376693  0.36407348  0.13330238    -0.05900
C1336       C  0.76231094  0.36583601  0.12240702    -0.09300
C1337       C  0.76818728  0.37544301  0.12257050    -0.25900
S1338       S  0.77192871  0.40767478  0.14996996    -0.03100
C1339       C  0.76348148  0.40567425  0.16092715    -0.16600
C1340       C  0.75728526  0.39630083  0.16035051    -0.14600
H1341       H  0.74879830  0.37679292  0.15298808     0.20800
H1342       H  0.77655614  0.39521073  0.12981396     0.16800
H1343       H  0.77407825  0.37783001  0.11652039     0.19400
H1344       H  0.75157251  0.39364774  0.16645803     0.12700
C1345       C  0.08293666  0.25121613  0.78078647     0.16600
C1346       C  0.08684209  0.26148033  0.78386568    -0.32500
C1347       C  0.08146261  0.26686676  0.79233836     0.21000
C1348       C  0.07276217  0.26212234  0.79764541     0.03200
C1349       C  0.06893143  0.25187043  0.79463943    -0.22200
C1350       C  0.07411787  0.24662962  0.78602820     0.12300
S1351       S  0.08779563  0.24358643  0.77025737    -0.05900
C1352       C  0.07762060  0.23432546  0.77279863    -0.09300
C1353       C  0.07104195  0.23699037  0.78149022    -0.25900
S1354       S  0.06702932  0.27003204  0.80738316    -0.03100
C1355       C  0.07629226  0.28001320  0.80420555    -0.16600
C1356       C  0.08355904  0.27715692  0.79610123    -0.14600
H1357       H  0.09356805  0.26522947  0.77964858     0.20800
H1358       H  0.06198543  0.24827296  0.79862946     0.16800
H1359       H  0.06417442  0.23223609  0.78420466     0.19400
H1360       H  0.08983430  0.28241078  0.79291976     0.12700
C1361       C  0.10869751  0.14387930  0.72294242     0.16600
C1362       C  0.11295306  0.13372438  0.71992227    -0.32500
C1363       C  0.12409393  0.13193715  0.72154379     0.21000
C1364       C  0.13066445  0.13994061  0.72589635     0.03200
C1365       C  0.12642661  0.15004671  0.72888154    -0.22200
C1366       C  0.11532848  0.15180085  0.72733741     0.12300
S1367       S  0.09541010  0.14772305  0.72183501    -0.05900
C1368       C  0.09885467  0.16010920  0.72741405    -0.09300
C1369       C  0.10976392  0.16107189  0.72990603    -0.25900
S1370       S  0.14390415  0.13629646  0.72728966    -0.03100
C1371       C  0.14067585  0.12375965  0.72201866    -0.16600
C1372       C  0.12980251  0.12259799  0.71930131    -0.14600
H1373       H  0.10780630  0.12748190  0.71652869     0.20800
H1374       H  0.13156285  0.15626971  0.73233004     0.16800
H1375       H  0.11348435  0.16817569  0.73346160     0.19400
H1376       H  0.12625472  0.11533343  0.71589017     0.12700
C1377       C  0.91538916  0.28608853  0.77132659     0.16600
C1378       C  0.91891449  0.28245996  0.76120307    -0.32500
C1379       C  0.91320775  0.27391546  0.75640512     0.21000
C1380       C  0.90421736  0.26929582  0.76131720     0.03200
C1381       C  0.90063978  0.27297719  0.77147100    -0.22200
C1382       C  0.90650340  0.28142319  0.77639219     0.12300
S1383       S  0.92167340  0.29593388  0.77865682    -0.05900
C1384       C  0.91237980  0.29369895  0.78882708    -0.09300
C1385       C  0.90470198  0.28579743  0.78646553    -0.25900
S1386       S  0.89862341  0.25880904  0.75414572    -0.03100
C1387       C  0.90869310  0.26055277  0.74461632    -0.16600
C1388       C  0.91581234  0.26893963  0.74687401    -0.14600
H1389       H  0.92597527  0.28597631  0.75734415     0.20800
H1390       H  0.89375126  0.26927061  0.77545740     0.16800
H1391       H  0.89833863  0.28318455  0.79191174     0.19400
H1392       H  0.92267014  0.27118619  0.74187982     0.12700
C1393       C  0.98325028  0.20261434  0.70870631     0.16600
C1394       C  0.99222313  0.19564584  0.70989669    -0.32500
C1395       C  0.00100112  0.19936719  0.71618291     0.21000
C1396       C  0.00076347  0.20953583  0.72097947     0.03200
C1397       C  0.99198016  0.21648920  0.71962867    -0.22200
C1398       C  0.98329108  0.21279135  0.71344817     0.12300
S1399       S  0.97139836  0.19965181  0.70205860    -0.05900
C1400       C  0.96657471  0.21225211  0.70587114    -0.09300
C1401       C  0.97391807  0.21833746  0.71176121    -0.25900
S1402       S  0.01168588  0.21254814  0.72871200    -0.03100
C1403       C  0.01690293  0.20001799  0.72548975    -0.16600
C1404       C  0.01039558  0.19384867  0.71866590    -0.14600
H1405       H  0.99227176  0.18764629  0.70628576     0.20800
H1406       H  0.99182320  0.22439557  0.72344935     0.16800
H1407       H  0.97243914  0.22636390  0.71497244     0.19400
H1408       H  0.01230970  0.18574053  0.71590206     0.12700
C1409       C  0.86618260  0.21850542  0.66207021     0.16600
C1410       C  0.85636221  0.22089062  0.65698539    -0.32500
C1411       C  0.85552930  0.21875949  0.64589407     0.21000
C1412       C  0.86404821  0.21435763  0.64007415     0.03200
C1413       C  0.87390491  0.21189809  0.64519488    -0.22200
C1414       C  0.87477057  0.21411700  0.65632789     0.12300
S1415       S  0.86884527  0.22099082  0.67535408    -0.05900
C1416       C  0.88175929  0.21617493  0.67324789    -0.09300
C1417       C  0.88375362  0.21269480  0.66273586    -0.25900
S1418       S  0.86130600  0.21255768  0.62660661    -0.03100
C1419       C  0.84856628  0.21783102  0.62889967    -0.16600
C1420       C  0.84667956  0.22076055  0.63956673    -0.14600
H1421       H  0.84969158  0.22440424  0.66146081     0.20800
H1422       H  0.88062957  0.20854067  0.64068576     0.16800
H1423       H  0.89142304  0.20959002  0.65985485     0.19400
H1424       H  0.83922647  0.22422357  0.64259647     0.12700
C1425       C  0.17442859  0.00390512  0.69185067     0.16600
C1426       C  0.17613276  0.01464119  0.68844978    -0.32500
C1427       C  0.17146341  0.02296034  0.69463708     0.21000
C1428       C  0.16502275  0.02070502  0.70356584     0.03200
C1429       C  0.16332762  0.00996961  0.70697122    -0.22200
C1430       C  0.16833909  0.00167260  0.70102549     0.12300
S1431       S  0.18012808  0.99271587  0.68598785    -0.05900
C1432       C  0.17463144  0.98501019  0.69627059    -0.09300
C1433       C  0.16847531  0.99085049  0.70362767    -0.25900
S1434       S  0.16038113  0.03196400  0.71018378    -0.03100
C1435       C  0.16753914  0.03976545  0.70107593    -0.16600
C1436       C  0.17301325  0.03389280  0.69323380    -0.14600
H1437       H  0.18121249  0.01644940  0.68152867     0.20800
H1438       H  0.15864774  0.00818805  0.71417421     0.16800
H1439       H  0.16461066  0.98740648  0.71071799     0.19400
H1440       H  0.17815131  0.03744016  0.68705886     0.12700
C1441       C  0.20306005  0.88504050  0.66049133     0.16600
C1442       C  0.20651048  0.87503004  0.65635724    -0.32500
C1443       C  0.20284525  0.87201983  0.64604726     0.21000
C1444       C  0.19591277  0.87860327  0.64016291     0.03200
C1445       C  0.19237266  0.88859385  0.64434887    -0.22200
C1446       C  0.19618461  0.89169150  0.65460807     0.12300
S1447       S  0.20699139  0.89030100  0.67263105    -0.05900
C1448       C  0.19942047  0.90170440  0.66976493    -0.09300
C1449       C  0.19404826  0.90127737  0.65989754    -0.25900
S1450       S  0.19268575  0.87358775  0.62766785    -0.03100
C1451       C  0.20087008  0.86255172  0.63033943    -0.16600
C1452       C  0.20568351  0.86281120  0.64048937    -0.14600
H1453       H  0.21198753  0.86989880  0.66089993     0.20800
H1454       H  0.18705528  0.89381645  0.63972300     0.16800
H1455       H  0.18895332  0.90766438  0.65670119     0.19400
H1456       H  0.21114502  0.85669410  0.64359942     0.12700
C1457       C  0.17773109  0.82813292  0.51338007     0.16600
C1458       C  0.17622850  0.82998068  0.52452590    -0.32500
C1459       C  0.18552765  0.83076346  0.53106990     0.21000
C1460       C  0.19581005  0.82982827  0.52665200     0.03200
C1461       C  0.19729837  0.82828413  0.51553989    -0.22200
C1462       C  0.18805491  0.82738727  0.50906647     0.12300
S1463       S  0.16763392  0.82590831  0.50411661    -0.05900
C1464       C  0.17748889  0.82385690  0.49440896    -0.09300
C1465       C  0.18796798  0.82508650  0.49824886    -0.25900
S1466       S  0.20603602  0.82991362  0.53587499    -0.03100
C1467       C  0.19645098  0.83131411  0.54589517    -0.16600
C1468       C  0.18585372  0.83180822  0.54217332    -0.14600
H1469       H  0.16819272  0.83041023  0.52799047     0.20800
H1470       H  0.20532794  0.82740066  0.51213885     0.16800
H1471       H  0.19523837  0.82395487  0.49350160     0.19400
H1472       H  0.17878761  0.83229981  0.54733560     0.12700
C1473       C  0.06069516  0.73606359  0.27342916     0.16600
C1474       C  0.05586850  0.73986382  0.28293869    -0.32500
C1475       C  0.06187499  0.74695477  0.28942095     0.21000
C1476       C  0.07231785  0.75004144  0.28668334     0.03200
C1477       C  0.07715394  0.74627227  0.27708420    -0.22200
C1478       C  0.07105538  0.73925841  0.27048591     0.12300
S1479       S  0.05459670  0.72748566  0.26453771    -0.05900
C1480       C  0.06601932  0.72825750  0.25655986    -0.09300
C1481       C  0.07415715  0.73483046  0.26073524    -0.25900
S1482       S  0.07820290  0.75865593  0.29583003    -0.03100
C1483       C  0.06636280  0.75821242  0.30324818    -0.16600
C1484       C  0.05840945  0.75164285  0.29883533    -0.14600
H1485       H  0.04773104  0.73744754  0.28515735     0.20800
H1486       H  0.08526296  0.74874344  0.27483183     0.16800
H1487       H  0.08189464  0.73628131  0.25687297     0.19400
H1488       H  0.05047748  0.75033165  0.30233873     0.12700
C1489       C  0.10881132  0.79132573  0.39082678     0.16600
C1490       C  0.11802332  0.78766213  0.39630886    -0.32500
C1491       C  0.12060285  0.79259680  0.40617671     0.21000
C1492       C  0.11433711  0.80088484  0.41042063     0.03200
C1493       C  0.10505689  0.80456776  0.40491353    -0.22200
C1494       C  0.10241736  0.79955183  0.39502067     0.12300
S1495       S  0.10442364  0.78624216  0.37880568    -0.05900
C1496       C  0.09370700  0.79517731  0.37932787    -0.09300
C1497       C  0.09367329  0.80179850  0.38844571    -0.25900
S1498       S  0.11901879  0.80578133  0.42252696    -0.03100
C1499       C  0.12948727  0.79651266  0.42184050    -0.16600
C1500       C  0.12923611  0.79005170  0.41265439    -0.14600
H1501       H  0.12296510  0.78119916  0.39302563     0.20800
H1502       H  0.10010597  0.81101504  0.40820583     0.16800
H1503       H  0.08760940  0.80789114  0.39017407     0.19400
H1504       H  0.13508457  0.78380956  0.41073889     0.12700
C1505       C  0.91495458  0.75355684  0.24152651     0.16600
C1506       C  0.91944077  0.76326982  0.24531686    -0.32500
C1507       C  0.91317409  0.76958895  0.25234506     0.21000
C1508       C  0.90277285  0.76654412  0.25529767     0.03200
C1509       C  0.89830778  0.75673368  0.25157500    -0.22200
C1510       C  0.90469363  0.75026844  0.24470636     0.12300
S1511       S  0.92144018  0.74469387  0.23317446    -0.05900
C1512       C  0.91036182  0.73623705  0.23414859    -0.09300
C1513       C  0.90202513  0.74026799  0.24053785    -0.25900
S1514       S  0.89653657  0.77547750  0.26390113    -0.03100
C1515       C  0.90819981  0.78316525  0.26371279    -0.16600
C1516       C  0.91636127  0.77902569  0.25723773    -0.14600
H1517       H  0.92754609  0.76571903  0.24301273     0.20800
H1518       H  0.89028456  0.75418324  0.25404195     0.16800
H1519       H  0.89448261  0.73607685  0.24213382     0.19400
H1520       H  0.92428041  0.78268613  0.25627047     0.12700
C1521       C  0.97484859  0.80801507  0.33189172     0.16600
C1522       C  0.98317052  0.80112854  0.33514099    -0.32500
C1523       C  0.99261698  0.80586972  0.33910280     0.21000
C1524       C  0.99375919  0.81701260  0.34010125     0.03200
C1525       C  0.98523989  0.82399001  0.33703824    -0.22200
C1526       C  0.97577251  0.81920373  0.33278320     0.12300
S1527       S  0.96342423  0.80359709  0.32572172    -0.05900
C1528       C  0.95969269  0.81693767  0.32407298    -0.09300
C1529       C  0.96691852  0.82443374  0.32840238    -0.25900
S1530       S  0.00643812  0.82093207  0.34432805    -0.03100
C1531       C  0.01012157  0.80740057  0.34439570    -0.16600
C1532       C  0.00184058  0.80038464  0.34161124    -0.14600
H1533       H  0.98250366  0.79241916  0.33414052     0.20800
H1534       H  0.98612499  0.83272016  0.33750776     0.16800
H1535       H  0.96606026  0.83315842  0.32779033     0.19400
H1536       H  0.00265485  0.79165673  0.34096212     0.12700
C1537       C  0.85636859  0.88624713  0.29560613     0.16600
C1538       C  0.86155626  0.87724594  0.29105146    -0.32500
C1539       C  0.87076459  0.87323075  0.29630165     0.21000
C1540       C  0.87473502  0.87801678  0.30563543     0.03200
C1541       C  0.86957086  0.88710021  0.31017674    -0.22200
C1542       C  0.86028215  0.89108550  0.30494317     0.12300
S1543       S  0.84480449  0.89191834  0.29067375    -0.05900
C1544       C  0.84512859  0.90094095  0.30130306    -0.09300
C1545       C  0.85389674  0.89961645  0.30821651    -0.25900
S1546       S  0.88598854  0.87177619  0.31076608    -0.03100
C1547       C  0.88526250  0.86258969  0.30025021    -0.16600
C1548       C  0.87673345  0.86439875  0.29319427    -0.14600
H1549       H  0.85845102  0.87343318  0.28379624     0.20800
H1550       H  0.87258567  0.89081609  0.31751799     0.16800
H1551       H  0.85533909  0.90440071  0.31541579     0.19400
H1552       H  0.87496584  0.85952052  0.28613306     0.12700
C1553       C  0.81715977  0.21459402  0.52381466     0.16600
C1554       C  0.81471122  0.21628036  0.51290702    -0.32500
C1555       C  0.81388344  0.20715773  0.50623907     0.21000
C1556       C  0.81561317  0.19675462  0.51013091     0.03200
C1557       C  0.81842120  0.19506894  0.52106327    -0.22200
C1558       C  0.81906605  0.20425124  0.52784123     0.12300
S1559       S  0.81707574  0.22458010  0.53330628    -0.05900
C1560       C  0.81965536  0.21483095  0.54294492    -0.09300
C1561       C  0.82071518  0.20436048  0.53888504    -0.25900
S1562       S  0.81321561  0.18678712  0.50071120    -0.03100
C1563       C  0.80975458  0.19681928  0.49154772    -0.16600
C1564       C  0.81068249  0.20725205  0.49566559    -0.14600
H1565       H  0.81302456  0.22434857  0.50984463     0.20800
H1566       H  0.81959538  0.18695720  0.52423785     0.16800
H1567       H  0.82191371  0.19718325  0.54381163     0.19400
H1568       H  0.80871506  0.21462059  0.49132113     0.12700
C1569       C  0.79902281  0.01063226  0.34716286     0.16600
C1570       C  0.79670117  0.99955037  0.34841271    -0.32500
C1571       C  0.80266961  0.99216289  0.34216718     0.21000
C1572       C  0.81084880  0.99561399  0.33527026     0.03200
C1573       C  0.81312124  0.00669410  0.33396916    -0.22200
C1574       C  0.80690110  0.01409955  0.33993270     0.12300
S1575       S  0.79230243  0.02091962  0.35354618    -0.05900
C1576       C  0.79988493  0.02997916  0.34606879    -0.09300
C1577       C  0.80736457  0.02519856  0.33920175    -0.25900
S1578       S  0.81710808  0.98538884  0.32835843    -0.03100
C1579       C  0.80834124  0.97641104  0.33450954    -0.16600
C1580       C  0.80111868  0.98114666  0.34167818    -0.14600
H1581       H  0.79032607  0.99682713  0.35379465     0.20800
H1582       H  0.81926824  0.00943567  0.32833676     0.16800
H1583       H  0.81269690  0.02961520  0.33379735     0.19400
H1584       H  0.79494541  0.97677724  0.34614289     0.12700
C1585       C  0.78031640  0.11935437  0.39920197     0.16600
C1586       C  0.78386648  0.12451099  0.40868641    -0.32500
C1587       C  0.77922499  0.13457142  0.41131310     0.21000
C1588       C  0.77137273  0.13923987  0.40479145     0.03200
C1589       C  0.76787571  0.13412678  0.39528901    -0.22200
C1590       C  0.77255085  0.12411240  0.39264346     0.12300
S1591       S  0.78489405  0.10711492  0.39460639    -0.05900
C1592       C  0.77634147  0.10847304  0.38366628    -0.09300
C1593       C  0.77027407  0.11794323  0.38369822    -0.25900
S1594       S  0.76671532  0.15142521  0.40932742    -0.03100
C1595       C  0.77550155  0.15035283  0.42012279    -0.16600
C1596       C  0.78164817  0.14092122  0.42013576    -0.14600
H1597       H  0.78998675  0.12084927  0.41378257     0.20800
H1598       H  0.76179004  0.13781219  0.39016446     0.16800
H1599       H  0.76448522  0.12020332  0.37752161     0.19400
H1600       H  0.78760780  0.13884458  0.42620933     0.12700
C1601       C  0.73379095  0.59597486  0.27900928     0.16600
C1602       C  0.73990591  0.59645007  0.26947379    -0.32500
C1603       C  0.75089718  0.59377848  0.27014986     0.21000
C1604       C  0.75569379  0.59111466  0.27994934     0.03200
C1605       C  0.74954503  0.59052098  0.28947906    -0.22200
C1606       C  0.73846057  0.59284933  0.28873324     0.12300
S1607       S  0.72024615  0.59844952  0.27974075    -0.05900
C1608       C  0.72076058  0.59479710  0.29318599    -0.09300
C1609       C  0.73097954  0.59206075  0.29690719    -0.25900
S1610       S  0.76920343  0.58836121  0.27906945    -0.03100
C1611       C  0.76824712  0.59044491  0.26532241    -0.16600
C1612       C  0.75804076  0.59324394  0.26168717    -0.14600
H1613       H  0.73620621  0.59858955  0.26182034     0.20800
H1614       H  0.75319338  0.58814297  0.29708639     0.09600
H1615       H  0.73278304  0.58943277  0.30507715     0.19400
H1616       H  0.75598142  0.59480527  0.25330889     0.12700
C1617       C  0.60250512  0.63330715  0.30666606     0.16600
C1618       C  0.60743084  0.62332614  0.30916249    -0.32500
C1619       C  0.61853447  0.62219692  0.30689707     0.21000
C1620       C  0.62442491  0.63061941  0.30231128     0.03200
C1621       C  0.61950051  0.64053371  0.29975025    -0.22200
C1622       C  0.60844749  0.64166847  0.30205337     0.12300
S1623       S  0.58920942  0.63649681  0.30900369    -0.05900
C1624       C  0.59171421  0.64923968  0.30372582    -0.09300
C1625       C  0.60232509  0.65076926  0.30031762    -0.25900
S1626       S  0.63778021  0.62778313  0.30031631    -0.03100
C1627       C  0.63550545  0.61504996  0.30569499    -0.16600
C1628       C  0.62485640  0.61321017  0.30884854    -0.14600
H1629       H  0.60283827  0.61676974  0.31279101     0.20800
H1630       H  0.62411231  0.64712016  0.29619502     0.16800
H1631       H  0.60548704  0.65819699  0.29684603     0.19400
H1632       H  0.62189893  0.60574184  0.31241811     0.12700
C1633       C  0.72967559  0.26119353  0.44087202     0.16600
C1634       C  0.73128869  0.24993572  0.44154015    -0.32500
C1635       C  0.74183358  0.24602521  0.43992108     0.21000
C1636       C  0.75038046  0.25302914  0.43779440     0.03200
C1637       C  0.74871389  0.26423143  0.43684849    -0.22200
C1638       C  0.73818576  0.26812923  0.43842545     0.12300
S1639       S  0.71771008  0.26765747  0.44338226    -0.05900
C1640       C  0.72423115  0.27980998  0.44097471    -0.09300
C1641       C  0.73507816  0.27879903  0.43831233    -0.25900
S1642       S  0.76270034  0.24686772  0.43701718    -0.03100
C1643       C  0.75627711  0.23468143  0.43935918    -0.16600
C1644       C  0.74515653  0.23541656  0.44065408    -0.14600
H1645       H  0.72467318  0.24449461  0.44349460     0.20800
H1646       H  0.75539144  0.26970598  0.43522578     0.16800
H1647       H  0.74052095  0.28553647  0.43681998     0.19400
H1648       H  0.73987938  0.22862932  0.44249030     0.12700
C1649       C  0.73308039  0.42458644  0.28251651     0.16600
C1650       C  0.74213762  0.42497049  0.27571407    -0.32500
C1651       C  0.74035946  0.42434070  0.26453907     0.21000
C1652       C  0.73003947  0.42321426  0.26028525     0.03200
C1653       C  0.72093834  0.42304690  0.26709074    -0.22200
C1654       C  0.72270937  0.42384952  0.27828802     0.12300
S1655       S  0.73360144  0.42504742  0.29630234    -0.05900
C1656       C  0.71968837  0.42453711  0.29639464    -0.09300
C1657       C  0.71495054  0.42399123  0.28624252    -0.25900
S1658       S  0.72969837  0.42230887  0.24647860    -0.03100
C1659       C  0.74357172  0.42377815  0.24647258    -0.16600
C1660       C  0.74813305  0.42477150  0.25665718    -0.14600
H1661       H  0.75022791  0.42573523  0.27899209     0.20800
H1662       H  0.71284573  0.42234377  0.26380828     0.16800
H1663       H  0.70631634  0.42362774  0.28478859     0.19400
H1664       H  0.75669812  0.42578528  0.25821505     0.12700
C1665       C  0.67891611  0.50073252  0.34336183     0.16600
C1666       C  0.68085143  0.51187213  0.34466196    -0.32500
C1667       C  0.67579624  0.51902943  0.33740628     0.21000
C1668       C  0.66882654  0.51531659  0.32943518     0.03200
C1669       C  0.66694070  0.50417288  0.32809703    -0.22200
C1670       C  0.67226951  0.49699677  0.33513197     0.12300
S1671       S  0.68481779  0.49068585  0.35087592    -0.05900
C1672       C  0.67861010  0.48136228  0.34255828    -0.09300
C1673       C  0.67210768  0.48588895  0.33460434    -0.25900
S1674       S  0.66350051  0.52533352  0.32145212    -0.03100
C1675       C  0.67103350  0.53456654  0.32870095    -0.16600
C1676       C  0.67719088  0.53006022  0.33693297    -0.14600
H1677       H  0.68629199  0.51481440  0.35087041     0.20800
H1678       H  0.66176880  0.50120952  0.32167315     0.16800
H1679       H  0.66775182  0.48129224  0.32854214     0.19400
H1680       H  0.68249454  0.53462179  0.34221936     0.12700
C1681       C  0.70610290  0.39628772  0.40004414     0.16600
C1682       C  0.70445371  0.39199324  0.41047132    -0.32500
C1683       C  0.70842284  0.38150818  0.41259991     0.21000
C1684       C  0.71384525  0.37564357  0.40471320     0.03200
C1685       C  0.71550090  0.37993095  0.39434133    -0.22200
C1686       C  0.71148848  0.39034204  0.39219996     0.12300
S1687       S  0.70173868  0.40872215  0.39566819    -0.05900
C1688       C  0.70718417  0.40582065  0.38312484    -0.09300
C1689       C  0.71214941  0.39574799  0.38252157    -0.25900
S1690       S  0.71791424  0.36306131  0.40871949    -0.03100
C1691       C  0.71218245  0.36557246  0.42118719    -0.16600
C1692       C  0.70743949  0.37575863  0.42211337    -0.14600
H1693       H  0.70018223  0.39656902  0.41660546     0.20800
H1694       H  0.71965646  0.37530098  0.38816614     0.16800
H1695       H  0.71595229  0.39245425  0.37535172     0.19400
H1696       H  0.70338010  0.37874564  0.42927964     0.12700
C1697       C  0.75322921  0.25941955  0.60926134     0.16600
C1698       C  0.74331286  0.26226004  0.61412366    -0.32500
C1699       C  0.73633722  0.26916163  0.60829058     0.21000
C1700       C  0.73920163  0.27307268  0.59814906     0.03200
C1701       C  0.74898316  0.27014787  0.59327825    -0.22200
C1702       C  0.75587053  0.26324222  0.59903656     0.12300
S1703       S  0.76296234  0.25123248  0.61485973    -0.05900
C1704       C  0.77049431  0.25288301  0.60318047    -0.09300
C1705       C  0.76567296  0.25951359  0.59551505    -0.25900
S1706       S  0.72998463  0.28155660  0.59243118    -0.03100
C1707       C  0.72197963  0.27983175  0.60372937    -0.16600
C1708       C  0.72634512  0.27294940  0.61151992    -0.14600
H1709       H  0.74115041  0.25925631  0.62207779     0.20800
H1710       H  0.75115267  0.27316179  0.58532543     0.16800
H1711       H  0.76915664  0.26154714  0.58772612     0.19400
H1712       H  0.72250310  0.27095296  0.61914797     0.12700
C1713       C  0.66986152  0.31670107  0.53164397     0.16600
C1714       C  0.66913170  0.31455510  0.52052723    -0.32500
C1715       C  0.67492837  0.32133236  0.51344569     0.21000
C1716       C  0.68086804  0.33010420  0.51720854     0.03200
C1717       C  0.68160540  0.33224515  0.52832247    -0.22200
C1718       C  0.67613392  0.32522907  0.53542793     0.12300
S1719       S  0.66409176  0.30896237  0.54160695    -0.05900
C1720       C  0.67054880  0.31704583  0.55095031    -0.09300
C1721       C  0.67662370  0.32540953  0.54650554    -0.25900
S1722       S  0.68751329  0.33719720  0.50732321    -0.03100
C1723       C  0.68257327  0.32799969  0.49807478    -0.16600
C1724       C  0.67593500  0.32004624  0.50247533    -0.14600
H1725       H  0.66454499  0.30768419  0.51755362     0.20800
H1726       H  0.68652807  0.33886764  0.53132074     0.16800
H1727       H  0.68139968  0.33112365  0.55114252     0.19400
H1728       H  0.67224551  0.31351709  0.49792004     0.12700
C1729       C  0.61858261  0.29153362  0.63899334     0.16600
C1730       C  0.60834778  0.29372719  0.64348183    -0.32500
C1731       C  0.60625639  0.29000164  0.65405122     0.21000
C1732       C  0.61401252  0.28430857  0.65983328     0.03200
C1733       C  0.62422272  0.28213609  0.65536090    -0.22200
C1734       C  0.62632819  0.28590055  0.64484250     0.12300
S1735       S  0.62279964  0.29543831  0.62637412    -0.05900
C1736       C  0.63518757  0.28952972  0.62904490    -0.09300
C1737       C  0.63584451  0.28472528  0.63919921    -0.25900
S1738       S  0.60996549  0.28040884  0.67246078    -0.03100
C1739       C  0.59764041  0.28652079  0.67004599    -0.16600
C1740       C  0.59683224  0.29132596  0.65988173    -0.14600
H1741       H  0.60229923  0.29817275  0.63894940     0.20800
H1742       H  0.63028739  0.27772735  0.65990989     0.16800
H1743       H  0.64293385  0.28065159  0.64235152     0.19400
H1744       H  0.58973940  0.29551406  0.65689067     0.12700
C1745       C  0.25330355  0.42337471  0.77782405     0.16600
C1746       C  0.24358470  0.41929528  0.78216834    -0.32500
C1747       C  0.23775944  0.42601299  0.78929184     0.21000
C1748       C  0.24157039  0.43622259  0.79208242     0.03200
C1749       C  0.25123989  0.44027128  0.78776672    -0.22200
C1750       C  0.25693213  0.43366907  0.78052687     0.12300
S1751       S  0.26147352  0.41674672  0.76878781    -0.05900
C1752       C  0.26968699  0.42809194  0.76850581    -0.09300
C1753       C  0.26626596  0.43641756  0.77521183    -0.25900
S1754       S  0.23342121  0.44320601  0.80072533    -0.03100
C1755       C  0.22459548  0.43236964  0.80053053    -0.16600
C1756       C  0.22795964  0.42375187  0.79410837    -0.14600
H1757       H  0.24062177  0.41132232  0.77997441     0.20800
H1758       H  0.25412215  0.44830999  0.78983823     0.16800
H1759       H  0.27035227  0.44414131  0.77612324     0.19400
H1760       H  0.22346548  0.41629431  0.79295966     0.12700
C1761       C  0.48664047  0.31983392  0.72509111     0.16600
C1762       C  0.49734778  0.31632865  0.72598346    -0.32500
C1763       C  0.50278190  0.31348299  0.71647861     0.21000
C1764       C  0.49794351  0.31437194  0.70640104     0.03200
C1765       C  0.48718632  0.31808465  0.70547647    -0.22200
C1766       C  0.48160097  0.32068338  0.71509896     0.12300
S1767       S  0.47849877  0.32236223  0.73589029    -0.05900
C1768       C  0.46798760  0.32445996  0.72700608    -0.09300
C1769       C  0.47083255  0.32349988  0.71614198    -0.25900
S1770       S  0.50591809  0.30973260  0.69597390    -0.03100
C1771       C  0.51563743  0.30636144  0.70542635    -0.16600
C1772       C  0.51284033  0.30892015  0.71596347    -0.14600
H1773       H  0.50113513  0.31538400  0.73383123     0.20800
H1774       H  0.48322020  0.31850064  0.69767796     0.16800
H1775       H  0.46521313  0.32416098  0.70945707     0.19400
H1776       H  0.51776626  0.30709297  0.72298203     0.12700
C1777       C  0.37338993  0.37295296  0.72902267     0.16600
C1778       C  0.36903829  0.38307826  0.72609530    -0.32500
C1779       C  0.35821145  0.38518824  0.72888579     0.21000
C1780       C  0.35199958  0.37752179  0.73429248     0.03200
C1781       C  0.35633913  0.36741142  0.73720368    -0.22200
C1782       C  0.36716838  0.36533501  0.73448110     0.12300
S1783       S  0.38637668  0.36885013  0.72652950    -0.05900
C1784       C  0.38343726  0.35675912  0.73298514    -0.09300
C1785       C  0.37287481  0.35605446  0.73678843    -0.25900
S1786       S  0.33913022  0.38165545  0.73712239    -0.03100
C1787       C  0.34209311  0.39392668  0.73103875    -0.16600
C1788       C  0.35256440  0.39462306  0.72697001    -0.14600
H1789       H  0.37390354  0.38907786  0.72190317     0.20800
H1790       H  0.35150640  0.36145428  0.74149449     0.16800
H1791       H  0.36952415  0.34913773  0.74105159     0.19400
H1792       H  0.35593414  0.40169248  0.72297949     0.12700
C1793       C  0.25181288  0.77056718  0.60943672     0.16600
C1794       C  0.25547278  0.76080215  0.61408181    -0.32500
C1795       C  0.26146540  0.75370134  0.60748039     0.21000
C1796       C  0.26383616  0.75632964  0.59681694     0.03200
C1797       C  0.26016277  0.76601606  0.59218977    -0.22200
C1798       C  0.25405612  0.77299110  0.59870664     0.12300
S1799       S  0.24414415  0.78020599  0.61585671    -0.05900
C1800       C  0.24377246  0.78737805  0.60384718    -0.09300
C1801       C  0.24947802  0.78255970  0.59547171    -0.25900
S1802       S  0.27124224  0.74683192  0.59011776    -0.03100
C1803       C  0.27107264  0.73904045  0.60171841    -0.16600
C1804       C  0.26554978  0.74370224  0.61033637    -0.14600
H1805       H  0.25362832  0.75877577  0.62241426     0.20800
H1806       H  0.26189058  0.76797897  0.58381275     0.16800
H1807       H  0.25014115  0.78581201  0.58734818     0.19400
H1808       H  0.26461108  0.74001091  0.61824167     0.12700
C1809       C  0.24959969  0.59470430  0.78175650     0.16600
C1810       C  0.25890308  0.59431237  0.77527618    -0.32500
C1811       C  0.25747744  0.59352256  0.76404628     0.21000
C1812       C  0.24725922  0.59347787  0.75941479     0.03200
C1813       C  0.23794610  0.59381011  0.76590423    -0.22200
C1814       C  0.23937149  0.59425142  0.77716557     0.12300
S1815       S  0.24961227  0.59522190  0.79557133    -0.05900
C1816       C  0.23570386  0.59442910  0.79517996    -0.09300
C1817       C  0.23135909  0.59398690  0.78484756    -0.25900
S1818       S  0.24729676  0.59243371  0.74561513    -0.03100
C1819       C  0.26120270  0.59164173  0.74615592    -0.16600
C1820       C  0.26550156  0.59238414  0.75648253    -0.14600
H1821       H  0.26690328  0.59436730  0.77884705     0.20800
H1822       H  0.22994600  0.59348422  0.76234819     0.16800
H1823       H  0.22279957  0.59339471  0.78306504     0.19400
H1824       H  0.27404878  0.59196271  0.75836585     0.12700
C1825       C  0.31874381  0.51902125  0.72074101     0.16600
C1826       C  0.31965884  0.50998908  0.72754255    -0.32500
C1827       C  0.32046537  0.49976787  0.72271482     0.21000
C1828       C  0.32081762  0.49854376  0.71156917     0.03200
C1829       C  0.32003645  0.50766982  0.70470508    -0.22200
C1830       C  0.31878477  0.51794076  0.70957054     0.12300
S1831       S  0.31642031  0.53183015  0.72523497    -0.05900
C1832       C  0.31504466  0.53593416  0.71195916    -0.09300
C1833       C  0.31673342  0.52770057  0.70443732    -0.25900
S1834       S  0.32127814  0.48523918  0.70745879    -0.03100
C1835       C  0.32055515  0.48142158  0.72089568    -0.16600
C1836       C  0.32027124  0.49003693  0.72806243    -0.14600
H1837       H  0.31922769  0.51084992  0.73625759     0.20800
H1838       H  0.31991519  0.50675384  0.69599199     0.16800
H1839       H  0.31591914  0.52865839  0.69576530     0.19400
H1840       H  0.31956996  0.48921275  0.73676718     0.12700
C1841       C  0.29051994  0.62131059  0.64869239     0.16600
C1842       C  0.29310334  0.62672920  0.63899065    -0.32500
C1843       C  0.28870559  0.63714310  0.63734387     0.21000
C1844       C  0.28215980  0.64197860  0.64507255     0.03200
C1845       C  0.27953968  0.63655367  0.65469902    -0.22200
C1846       C  0.28381903  0.62613346  0.65628142     0.12300
S1847       S  0.29496844  0.60863594  0.65236095    -0.05900
C1848       C  0.28759354  0.60983056  0.66417964    -0.09300
C1849       C  0.28208560  0.61961102  0.66510194    -0.25900
S1850       S  0.27775007  0.65467472  0.64171172    -0.03100
C1851       C  0.28461300  0.65346767  0.62962916    -0.16600
C1852       C  0.29009247  0.64368789  0.62840981    -0.14600
H1853       H  0.29827586  0.62298610  0.63298221     0.20800
H1854       H  0.27435355  0.64029122  0.66070254     0.16800
H1855       H  0.27709463  0.62193077  0.67191814     0.19400
H1856       H  0.29487799  0.64150341  0.62139873     0.12700
C1857       C  0.47905496  0.69728094  0.33318059     0.16600
C1858       C  0.48843078  0.69073691  0.33281601    -0.32500
C1859       C  0.49523747  0.69169281  0.32366401     0.21000
C1860       C  0.49267632  0.69876383  0.31530863     0.03200
C1861       C  0.48343896  0.70526207  0.31569933    -0.22200
C1862       C  0.47677801  0.70440145  0.32480057     0.12300
S1863       S  0.46960909  0.69758150  0.34342787    -0.05900
C1864       C  0.46276703  0.70755363  0.33633396    -0.09300
C1865       C  0.46758052  0.71027268  0.32656202    -0.25900
S1866       S  0.50166081  0.69893083  0.30491604    -0.03100
C1867       C  0.50925261  0.68942506  0.31177119    -0.16600
C1868       C  0.50484327  0.68627319  0.32168742    -0.14600
H1869       H  0.49035255  0.68521718  0.33936354     0.20800
H1870       H  0.48155373  0.71083829  0.30918048     0.16800
H1871       H  0.46448777  0.71623941  0.32091763     0.19400
H1872       H  0.50847511  0.68044547  0.32714843     0.12700
C1873       C  0.22977543  0.76260287  0.43934388     0.16600
C1874       C  0.24082118  0.76036458  0.43810511    -0.32500
C1875       C  0.24399367  0.74944758  0.43795690     0.21000
C1876       C  0.23651668  0.74111656  0.43911529     0.03200
C1877       C  0.22542840  0.74335270  0.44010113    -0.22200
C1878       C  0.22223829  0.75428328  0.44013982     0.12300
S1879       S  0.22440722  0.77530778  0.44029336    -0.05900
C1880       C  0.21182568  0.76939132  0.44153717    -0.09300
C1881       C  0.21187351  0.75813985  0.44124758    -0.25900
S1882       S  0.24210659  0.72844926  0.43954176    -0.03100
C1883       C  0.25460877  0.73443849  0.43788562    -0.16600
C1884       C  0.25438052  0.74565343  0.43708080    -0.14600
H1885       H  0.24670838  0.76685810  0.43745500     0.20800
H1886       H  0.21956552  0.73686423  0.44097474     0.16800
H1887       H  0.20475984  0.75306653  0.44212321     0.19400
H1888       H  0.26147055  0.75077453  0.43628191     0.12700
C1889       C  0.29463797  0.68421385  0.52682657     0.16600
C1890       C  0.29136529  0.68276830  0.51605847    -0.32500
C1891       C  0.29751753  0.68785787  0.50794070     0.21000
C1892       C  0.30662490  0.69395917  0.51040292     0.03200
C1893       C  0.30978618  0.69555217  0.52116398    -0.22200
C1894       C  0.30353804  0.69061826  0.52927917     0.12300
S1895       S  0.28824470  0.67882487  0.53789899    -0.05900
C1896       C  0.29750098  0.68552500  0.54588173    -0.09300
C1897       C  0.30513723  0.69149484  0.54019689    -0.25900
S1898       S  0.31310758  0.69930603  0.49939949    -0.03100
C1899       C  0.30328093  0.69350847  0.49140104    -0.16600
C1900       C  0.29549459  0.68766617  0.49703900    -0.14600
H1901       H  0.28429356  0.67795852  0.51409787     0.20800
H1902       H  0.31676801  0.70049042  0.52313319     0.16800
H1903       H  0.31147222  0.69631368  0.54388441     0.19400
H1904       H  0.28869062  0.68354132  0.49335478     0.12700
C1905       C  0.34906543  0.71998219  0.39555566     0.16600
C1906       C  0.35406158  0.72310058  0.38586848    -0.32500
C1907       C  0.36415525  0.71854828  0.38344092     0.21000
C1908       C  0.36910394  0.71116743  0.39030556     0.03200
C1909       C  0.36405361  0.70797566  0.40001771    -0.22200
C1910       C  0.35393469  0.71259891  0.40248861     0.12300
S1911       S  0.33686462  0.72472627  0.39990319    -0.05900
C1912       C  0.33822804  0.71670773  0.41125732    -0.09300
C1913       C  0.34774390  0.71069453  0.41156139    -0.25900
S1914       S  0.38157087  0.70692937  0.38591165    -0.03100
C1915       C  0.38007293  0.71526577  0.37475574    -0.16600
C1916       C  0.37033289  0.72085985  0.37453444    -0.14600
H1917       H  0.35027927  0.72891416  0.38048607     0.20800
H1918       H  0.36788348  0.70224522  0.40545085     0.16800
H1919       H  0.34998811  0.70518516  0.41801369     0.19400
H1920       H  0.36793698  0.72656229  0.36831337     0.12700
C1921       C  0.75076876  0.24253200  0.10420587     0.16600
C1922       C  0.75898146  0.25038943  0.10399562    -0.32500
C1923       C  0.75585516  0.26132461  0.10367096     0.21000
C1924       C  0.74503718  0.26432101  0.10389596     0.03200
C1925       C  0.73682523  0.25646354  0.10396342    -0.22200
C1926       C  0.73995240  0.24552362  0.10395377     0.12300
S1927       S  0.75288283  0.22883849  0.10427994    -0.05900
C1928       C  0.73907092  0.22712979  0.10352869    -0.09300
C1929       C  0.73319491  0.23670562  0.10344292    -0.25900
S1930       S  0.74291831  0.27800677  0.10365391    -0.03100
C1931       C  0.75672774  0.27968568  0.10283537    -0.16600
C1932       C  0.76261380  0.27012764  0.10290911    -0.14600
H1933       H  0.76743409  0.24807563  0.10389804     0.20800
H1934       H  0.72837195  0.25877562  0.10384178     0.16800
H1935       H  0.72445937  0.23717921  0.10291083     0.19400
H1936       H  0.77135114  0.26966198  0.10238778     0.12700
C1937       C  0.74277394  0.08834236  0.26834129     0.16600
C1938       C  0.74329127  0.08878377  0.27966791    -0.32500
C1939       C  0.75348440  0.09032761  0.28440839     0.21000
C1940       C  0.76276071  0.09137728  0.27815593     0.03200
C1941       C  0.76219087  0.09127974  0.26681859    -0.22200
C1942       C  0.75199533  0.08971253  0.26207471     0.12300
S1943       S  0.73133755  0.08564979  0.26108494    -0.05900
C1944       C  0.73901060  0.08653627  0.24944959    -0.09300
C1945       C  0.74986037  0.08882510  0.25121199    -0.25900
S1946       S  0.77448219  0.09193997  0.28545832    -0.03100
C1947       C  0.76677956  0.09091415  0.29703907    -0.16600
C1948       C  0.75572903  0.09027988  0.29527253    -0.14600
H1949       H  0.73611399  0.08763141  0.28457872     0.20800
H1950       H  0.76942410  0.09202675  0.26191560     0.16800
H1951       H  0.75593185  0.08944240  0.24491464     0.19400
H1952       H  0.74972666  0.08918373  0.30157794     0.12700
C1953       C  0.72871270  0.10940537  0.14430244     0.16600
C1954       C  0.72576933  0.11394439  0.13427453    -0.32500
C1955       C  0.72942217  0.12450548  0.13190199     0.21000
C1956       C  0.73580458  0.13020662  0.13915887     0.03200
C1957       C  0.73881546  0.12564157  0.14911317    -0.22200
C1958       C  0.73507968  0.11515904  0.15152642     0.12300
S1959       S  0.72466763  0.09697078  0.14900474    -0.05900
C1960       C  0.73151552  0.09961453  0.16089554    -0.09300
C1961       C  0.73676420  0.10958171  0.16100487    -0.25900
S1962       S  0.73917710  0.14297742  0.13499564    -0.03100
C1963       C  0.73188412  0.14073925  0.12331023    -0.16600
C1964       C  0.72715896  0.13050249  0.12275720    -0.14600
H1965       H  0.72069648  0.10952210  0.12866372     0.20800
H1966       H  0.74369852  0.13015284  0.15482267     0.16800
H1967       H  0.74133338  0.11274841  0.16776802     0.19400
H1968       H  0.72220384  0.12765342  0.11612483     0.12700
C1969       C  0.57684172  0.23968139  0.78061320     0.16600
C1970       C  0.58035211  0.24632318  0.77203078    -0.32500
C1971       C  0.57373811  0.24694283  0.76278987     0.21000
C1972       C  0.56408217  0.24122010  0.76217422     0.03200
C1973       C  0.56071704  0.23443623  0.77061220    -0.22200
C1974       C  0.56729535  0.23382422  0.77979831     0.12300
S1975       S  0.58330542  0.23815134  0.79278373    -0.05900
C1976       C  0.57306885  0.22943550  0.79668352    -0.09300
C1977       C  0.56514502  0.22790130  0.78890696    -0.25900
S1978       S  0.55676345  0.24359151  0.75075086    -0.03100
C1979       C  0.56683658  0.25231972  0.74660570    -0.16600
C1980       C  0.57545453  0.25323999  0.75374608    -0.14600
H1981       H  0.58778430  0.25095321  0.77261112     0.20800
H1982       H  0.55316184  0.22999195  0.77013282     0.16800
H1983       H  0.55802032  0.22287380  0.78990885     0.19400
H1984       H  0.58235418  0.25854618  0.75258246     0.12700
C1985       C  0.74092983  0.24760370  0.93489564     0.16600
C1986       C  0.75189544  0.25043067  0.93386972    -0.32500
C1987       C  0.75450248  0.26150581  0.93313182     0.21000
C1988       C  0.74653505  0.26941895  0.93347403     0.03200
C1989       C  0.73554481  0.26657944  0.93417978    -0.22200
C1990       C  0.73293498  0.25549685  0.93484924     0.12300
S1991       S  0.73618249  0.23468832  0.93671478    -0.05900
C1992       C  0.72326059  0.23992241  0.93715433    -0.09300
C1993       C  0.72275071  0.25111512  0.93595793    -0.25900
S1994       S  0.75141549  0.28240413  0.93352359    -0.03100
C1995       C  0.76432732  0.27714152  0.93286599    -0.16600
C1996       C  0.76472827  0.26589155  0.93258404    -0.14600
H1997       H  0.75814616  0.24427357  0.93391428     0.20800
H1998       H  0.72931506  0.27275250  0.93446429     0.16800
H1999       H  0.71535798  0.25582069  0.93628110     0.19400
H2000       H  0.77211982  0.26117551  0.93251785     0.12700
C2001       C  0.68330977  0.18768689  0.01406932     0.16600
C2002       C  0.68246275  0.18889421  0.02533263    -0.32500
C2003       C  0.68978710  0.18311867  0.03184394     0.21000
C2004       C  0.69733103  0.17610054  0.02737995     0.03200
C2005       C  0.69820902  0.17493043  0.01611594    -0.22200
C2006       C  0.69117896  0.18104420  0.00959072     0.12300
S2007       S  0.67573648  0.19460872  0.00475451    -0.05900
C2008       C  0.68358386  0.18888032  0.99475302    -0.09300
C2009       C  0.69143717  0.18178114  0.99850632    -0.25900
S2010       S  0.70557305  0.16994948  0.03666634    -0.03100
C2011       C  0.69908944  0.17724671  0.04662722    -0.16600
C2012       C  0.69084002  0.18389526  0.04287558    -0.14600
H2013       H  0.67659732  0.19438407  0.02885142     0.20800
H2014       H  0.70435384  0.16976619  0.01258340     0.16800
H2015       H  0.69724548  0.17764751  0.99340153     0.19400
H2016       H  0.68602420  0.18919298  0.04794057     0.12700
C2017       C  0.62222863  0.21053316  0.91110435     0.16600
C2018       C  0.61222706  0.20730359  0.90669926    -0.32500
C2019       C  0.60928537  0.21159804  0.89654813     0.21000
C2020       C  0.61599288  0.21881171  0.89111254     0.03200
C2021       C  0.62590332  0.22207182  0.89553165    -0.22200
C2022       C  0.62886298  0.21774978  0.90559557     0.12300
S2023       S  0.62754030  0.20608688  0.92312999    -0.05900
C2024       C  0.63884234  0.21399133  0.92062916    -0.09300
C2025       C  0.63833158  0.21978010  0.91099990    -0.25900
S2026       S  0.61121449  0.22297774  0.87886078    -0.03100
C2027       C  0.59997931  0.21493438  0.88094349    -0.16600
C2028       C  0.60003097  0.20934802  0.89074742    -0.14600
H2029       H  0.60703425  0.20161583  0.91093319     0.20800
H2030       H  0.63115637  0.22765947  0.89123587     0.16800
H2031       H  0.64461867  0.22511911  0.90798922     0.19400
H2032       H  0.59372601  0.20385689  0.89343544     0.12700
C2033       C  0.41957114  0.25403754  0.79892068     0.16600
C2034       C  0.42346648  0.26428089  0.79589251    -0.32500
C2035       C  0.41777735  0.26995944  0.78788421     0.21000
C2036       C  0.40853894  0.26570213  0.78314582     0.03200
C2037       C  0.40469390  0.25537400  0.78610321    -0.22200
C2038       C  0.41045007  0.24964058  0.79408015     0.12300
S2039       S  0.42534260  0.24595967  0.80851910    -0.05900
C2040       C  0.41545057  0.23643157  0.80596981    -0.09300
C2041       C  0.40806515  0.23948658  0.79806130    -0.25900
S2042       S  0.40273743  0.27404458  0.77370249    -0.03100
C2043       C  0.41299766  0.28324473  0.77604648    -0.16600
C2044       C  0.42041151  0.27996136  0.78379692    -0.14600
H2045       H  0.43064099  0.26767806  0.79961567     0.20800
H2046       H  0.39753965  0.25196293  0.78235827     0.16800
H2047       H  0.40131292  0.23457674  0.79537893     0.19400
H2048       H  0.42737258  0.28466010  0.78633075     0.12700
C2049       C  0.50342633  0.17900438  0.84234250     0.16600
C2050       C  0.49351633  0.17562687  0.83795499    -0.32500
C2051       C  0.48401552  0.17888578  0.84325496     0.21000
C2052       C  0.48437355  0.18520145  0.85253268     0.03200
C2053       C  0.49429307  0.18824945  0.85713109    -0.22200
C2054       C  0.50379385  0.18504046  0.85180105     0.12300
S2055       S  0.51574167  0.17706703  0.83638966    -0.05900
C2056       C  0.52147589  0.18440125  0.84678917    -0.09300
C2057       C  0.51416281  0.18798395  0.85450899    -0.25900
S2058       S  0.47199353  0.18943964  0.85698974    -0.03100
C2059       C  0.46626504  0.18245397  0.84637625    -0.16600
C2060       C  0.47361179  0.17711314  0.83979403    -0.14600
H2061       H  0.49321175  0.17105112  0.83048351     0.20800
H2062       H  0.49458613  0.19330300  0.86428909     0.16800
H2063       H  0.51622816  0.19307733  0.86133803     0.19400
H2064       H  0.47149193  0.17274220  0.83249766     0.12700
C2065       C  0.25626308  0.08363098  0.74953650     0.16600
C2066       C  0.24736945  0.07971989  0.74371706    -0.32500
C2067       C  0.24008690  0.08733795  0.73951775     0.21000
C2068       C  0.24158321  0.09839303  0.74097797     0.03200
C2069       C  0.25064482  0.10233050  0.74662496    -0.22200
C2070       C  0.25791445  0.09467746  0.75092518     0.12300
S2071       S  0.26554177  0.07560713  0.75582934    -0.05900
C2072       C  0.27179909  0.08720880  0.76048539    -0.09300
C2073       C  0.26690424  0.09679884  0.75714952    -0.25900
S2074       S  0.23135087  0.10621174  0.73581342    -0.03100
C2075       C  0.22508831  0.09443959  0.73158694    -0.16600
C2076       C  0.23073729  0.08503731  0.73404889    -0.14600
H2077       H  0.24603857  0.07108487  0.74273122     0.20800
H2078       H  0.25182221  0.11095196  0.74785604     0.16800
H2079       H  0.26957800  0.10485625  0.75939572     0.19400
H2080       H  0.22797714  0.07689103  0.73225191     0.12700
C2081       C  0.35458538  0.13436034  0.80680789     0.16600
C2082       C  0.35966139  0.14453787  0.80690475    -0.32500
C2083       C  0.37033899  0.14507257  0.81071258     0.21000
C2084       C  0.37578044  0.13589356  0.81423414     0.03200
C2085       C  0.37069194  0.12569161  0.81415038    -0.22200
C2086       C  0.35996207  0.12516851  0.81041255     0.12300
S2087       S  0.34166819  0.13203268  0.80246861    -0.05900
C2088       C  0.34342752  0.11852942  0.80567361    -0.09300
C2089       C  0.35357348  0.11605929  0.80983353    -0.25900
S2090       S  0.38869556  0.13836124  0.81860742    -0.03100
C2091       C  0.38671383  0.15192078  0.81568831    -0.16600
C2092       C  0.37654917  0.15425356  0.81151472    -0.14600
H2093       H  0.35545662  0.15174164  0.80415982     0.20800
H2094       H  0.37488350  0.11849515  0.81693180     0.16800
H2095       H  0.35617899  0.10801672  0.81222209     0.19400
H2096       H  0.37376333  0.16226671  0.80925070     0.12700
C2097       C  0.23338772  0.93370151  0.76265077     0.16600
C2098       C  0.24283111  0.93329445  0.76889613    -0.32500
C2099       C  0.24169313  0.93344683  0.78018259     0.21000
C2100       C  0.23159475  0.93376391  0.78507627     0.03200
C2101       C  0.22212901  0.93434568  0.77881398    -0.22200
C2102       C  0.22328001  0.93442656  0.76749456     0.12300
S2103       S  0.23310710  0.93338900  0.74885268    -0.05900
C2104       C  0.21924529  0.93455212  0.74955804    -0.09300
C2105       C  0.21510716  0.93509786  0.75998456    -0.25900
S2106       S  0.23201557  0.93364711  0.79892347    -0.03100
C2107       C  0.24594378  0.93352557  0.79807085    -0.16600
C2108       C  0.24994137  0.93340934  0.78758260    -0.14600
H2109       H  0.25073306  0.93291136  0.76511707     0.20800
H2110       H  0.21423063  0.93476794  0.78259282     0.16800
H2111       H  0.20658720  0.93572404  0.76194435     0.19400
H2112       H  0.25845085  0.93334287  0.78547763     0.12700
C2113       C  0.30912458  0.00193469  0.83341075     0.16600
C2114       C  0.31141930  0.01307512  0.83473775    -0.32500
C2115       C  0.31289185  0.01939963  0.82530970     0.21000
C2116       C  0.31234735  0.01472190  0.81511872     0.03200
C2117       C  0.31043250  0.00363497  0.81383527    -0.22200
C2118       C  0.30869937  0.99743498  0.82315651     0.12300
S2119       S  0.30570365  0.99296221  0.84353525    -0.05900
C2120       C  0.30349042  0.98321481  0.83372608    -0.09300
C2121       C  0.30564501  0.98678898  0.82329698    -0.25900
S2122       S  0.31304934  0.02363495  0.80463541    -0.03100
C2123       C  0.31402188  0.03395042  0.81394070    -0.16600
C2124       C  0.31406609  0.03053091  0.82468252    -0.14600
H2125       H  0.31151754  0.01673442  0.84269414     0.20800
H2126       H  0.30974126  0.00008789  0.80585329     0.16800
H2127       H  0.30459534  0.98200600  0.81604040     0.19400
H2128       H  0.31419569  0.03591679  0.83159469     0.12700
C2129       C  0.23493515  0.75796411  0.94337197     0.16600
C2130       C  0.23634310  0.76926160  0.94309500    -0.32500
C2131       C  0.24694843  0.77327765  0.94241879     0.21000
C2132       C  0.25577857  0.76634181  0.94213704     0.03200
C2133       C  0.25435342  0.75502358  0.94213815    -0.22200
C2134       C  0.24372524  0.75100237  0.94273114     0.12300
S2135       S  0.22276481  0.75156434  0.94477675    -0.05900
C2136       C  0.22950940  0.73933358  0.94426905    -0.09300
C2137       C  0.24064672  0.74026800  0.94309540    -0.25900
S2138       S  0.26800935  0.77283615  0.94226311    -0.03100
C2139       C  0.26115237  0.78501787  0.94246387    -0.16600
C2140       C  0.24997877  0.78401183  0.94241562    -0.14600
H2141       H  0.22947172  0.77469246  0.94358723     0.20800
H2142       H  0.26123752  0.74959285  0.94190093     0.16800
H2143       H  0.24620356  0.73348119  0.94281628     0.19400
H2144       H  0.24438587  0.79076381  0.94282501     0.12700
C2145       C  0.28214037  0.88618718  0.90754582     0.16600
C2146       C  0.28490718  0.89609874  0.90257880    -0.32500
C2147       C  0.27885550  0.89940077  0.89351757     0.21000
C2148       C  0.27045046  0.89307958  0.88958923     0.03200
C2149       C  0.26773374  0.88315339  0.89450535    -0.22200
C2150       C  0.27376618  0.87986426  0.90355919     0.12300
S2151       S  0.28827845  0.88087050  0.91877332    -0.05900
C2152       C  0.27947420  0.86999028  0.91812379    -0.09300
C2153       C  0.27224142  0.87054751  0.90953493    -0.25900
S2154       S  0.26407260  0.89845275  0.87856558    -0.03100
C2155       C  0.27282505  0.90937137  0.87913354    -0.16600
C2156       C  0.28026206  0.90877273  0.88755669    -0.14600
H2157       H  0.29144935  0.90104466  0.90567884     0.20800
H2158       H  0.26116473  0.87822644  0.89142837     0.16800
H2159       H  0.26606296  0.86455411  0.90783820     0.19400
H2160       H  0.28641627  0.91480628  0.88919509     0.12700
C2161       C  0.39716928  0.78533113  0.27671654     0.16600
C2162       C  0.39363100  0.77752179  0.28428333    -0.32500
C2163       C  0.40088310  0.77444944  0.29253183     0.21000
C2164       C  0.41112080  0.77902433  0.29319011     0.03200
C2165       C  0.41454959  0.78691180  0.28579362    -0.22200
C2166       C  0.40737917  0.78990779  0.27756652     0.12300
S2167       S  0.39003413  0.78973990  0.26564845    -0.05900
C2168       C  0.40097669  0.79778730  0.26219522    -0.09300
C2169       C  0.40955594  0.79707628  0.26938327    -0.25900
S2170       S  0.41901703  0.77391977  0.30324553    -0.03100
C2171       C  0.40848393  0.76545406  0.30676220    -0.16600
C2172       C  0.39926312  0.76667912  0.30042182    -0.14600
H2173       H  0.38570194  0.77383471  0.28362520     0.20800
H2174       H  0.42258914  0.79038758  0.28627915     0.16800
H2175       H  0.41718778  0.80130925  0.26852659     0.19400
H2176       H  0.39194110  0.76192313  0.30130563     0.12700
C2177       C  0.24236803  0.77790375  0.11123044     0.16600
C2178       C  0.23397206  0.77148370  0.11558777    -0.32500
C2179       C  0.22565433  0.76811868  0.10854960     0.21000
C2180       C  0.22575587  0.77106957  0.09771087     0.03200
C2181       C  0.23401743  0.77755461  0.09342682    -0.22200
C2182       C  0.24228819  0.78086303  0.10040553     0.12300
S2183       S  0.25345561  0.78256775  0.11815992    -0.05900
C2184       C  0.25793305  0.78858081  0.10631815    -0.09300
C2185       C  0.25110466  0.78697695  0.09756903    -0.25900
S2186       S  0.21543719  0.76581392  0.09027988    -0.03100
C2187       C  0.21078007  0.75946757  0.10182276    -0.16600
C2188       C  0.21695272  0.76151449  0.11101098    -0.14600
H2189       H  0.23401091  0.76908456  0.12402496     0.20800
H2190       H  0.23409127  0.77978043  0.08493875     0.16800
H2191       H  0.25254822  0.78999208  0.08945885     0.19400
H2192       H  0.21539941  0.75805128  0.11892424     0.12700
C2193       C  0.31526289  0.82590416  0.03231325     0.16600
C2194       C  0.31666481  0.82297740  0.02141763    -0.32500
C2195       C  0.31104130  0.82898752  0.01354659     0.21000
C2196       C  0.30466154  0.83779982  0.01635412     0.03200
C2197       C  0.30323690  0.84070465  0.02723621    -0.22200
C2198       C  0.30851156  0.83443238  0.03512436     0.12300
S2199       S  0.32052540  0.81901077  0.04314741    -0.05900
C2200       C  0.31319677  0.82742403  0.05151295    -0.09300
C2201       C  0.30723137  0.83527612  0.04612228    -0.25900
S2202       S  0.29840634  0.84395977  0.00564185    -0.03100
C2203       C  0.30409167  0.83431308  0.99731618    -0.16600
C2204       C  0.31064831  0.82687569  0.00263482    -0.14600
H2205       H  0.32159492  0.81606556  0.01920442     0.20800
H2206       H  0.29792951  0.84732062  0.02947963     0.16800
H2207       H  0.30182152  0.84095883  0.05004331     0.19400
H2208       H  0.31476022  0.82017549  0.99874136     0.12700
C2209       C  0.34605367  0.81456954  0.15535108     0.16600
C2210       C  0.34953861  0.81381041  0.16612532    -0.32500
C2211       C  0.36058394  0.81537127  0.16820974     0.21000
C2212       C  0.36783321  0.81764118  0.15993300     0.03200
C2213       C  0.36434574  0.81840249  0.14914597    -0.22200
C2214       C  0.35329126  0.81680934  0.14705499     0.12300
S2215       S  0.33303779  0.81271128  0.15117154    -0.05900
C2216       C  0.33733373  0.81490301  0.13805618    -0.09300
C2217       C  0.34832816  0.81706265  0.13710054    -0.25900
S2218       S  0.38087034  0.81935524  0.16416077    -0.03100
C2219       C  0.37653724  0.81696238  0.17723514    -0.16600
C2220       C  0.36552782  0.81492973  0.17814922    -0.14600
H2221       H  0.34388682  0.81203131  0.17259949     0.20800
H2222       H  0.37000637  0.82013303  0.14266680     0.16800
H2223       H  0.35250873  0.81854599  0.12953344     0.19400
H2224       H  0.36133078  0.81330546  0.18567829     0.12700
C2225       C  0.73321883  0.92098872  0.26408302     0.16600
C2226       C  0.74438983  0.92031972  0.26585190    -0.32500
C2227       C  0.74805316  0.92084129  0.27657006     0.21000
C2228       C  0.74092933  0.92203754  0.28516709     0.03200
C2229       C  0.72971987  0.92241697  0.28342101    -0.22200
C2230       C  0.72605069  0.92183878  0.27268840     0.12300
S2231       S  0.72725562  0.92129533  0.25163463    -0.05900
C2232       C  0.71494871  0.92237223  0.25807755    -0.09300
C2233       C  0.71551128  0.92245986  0.26928635    -0.25900
S2234       S  0.74708922  0.92336811  0.29747322    -0.03100
C2235       C  0.75936981  0.92208710  0.29096703    -0.16600
C2236       C  0.75863021  0.92070392  0.27986595    -0.14600
H2237       H  0.75000250  0.91966252  0.25914585     0.20800
H2238       H  0.72412310  0.92335847  0.29010582     0.16800
H2239       H  0.70861890  0.92334661  0.27463472     0.19400
H2240       H  0.76548511  0.92002780  0.27444024     0.12700
C2241       C  0.67677379  0.99880991  0.21495270     0.16600
C2242       C  0.67720964  0.01003838  0.21680163    -0.32500
C2243       C  0.68447939  0.01617262  0.21053506     0.21000
C2244       C  0.69085478  0.01137455  0.20263460     0.03200
C2245       C  0.69052956  0.00015394  0.20089738    -0.22200
C2246       C  0.68343546  0.99400408  0.20729902     0.12300
S2247       S  0.66872418  0.98986154  0.22186050    -0.05900
C2248       C  0.67466545  0.97954388  0.21458079    -0.09300
C2249       C  0.68233217  0.98295027  0.20712365    -0.25900
S2250       S  0.69902871  0.02017893  0.19577118    -0.03100
C2251       C  0.69404935  0.03042069  0.20381431    -0.16600
C2252       C  0.68636954  0.02711913  0.21133329    -0.14600
H2253       H  0.67220730  0.01380310  0.22293918     0.20800
H2254       H  0.69568263  0.99636146  0.19490139     0.16800
H2255       H  0.68700080  0.97758585  0.20198906     0.19400
H2256       H  0.68242706  0.03243064  0.21708999     0.12700
C2257       C  0.56202858  0.75690835  0.24545915     0.16600
C2258       C  0.55750132  0.74670468  0.24752751    -0.32500
C2259       C  0.56292261  0.73988625  0.25477558     0.21000
C2260       C  0.57255607  0.74297138  0.25962675     0.03200
C2261       C  0.57712428  0.75321636  0.25752764    -0.22200
C2262       C  0.57157599  0.76014593  0.25038930     0.12300
S2263       S  0.55632277  0.76644422  0.23730858    -0.05900
C2264       C  0.56677113  0.77507820  0.24066129    -0.09300
C2265       C  0.57437104  0.77060983  0.24764431    -0.25900
S2266       S  0.57773124  0.73347268  0.26830488    -0.03100
C2267       C  0.56667018  0.72540209  0.26548726    -0.16600
C2268       C  0.55950107  0.72986190  0.25811462    -0.14600
H2269       H  0.54995059  0.74426555  0.24380148     0.20800
H2270       H  0.58455332  0.75574307  0.26142921     0.16800
H2271       H  0.58139741  0.77484173  0.25073662     0.19400
H2272       H  0.55209996  0.72602577  0.25539820     0.12700
C2273       C  0.49429684  0.83975606  0.21663820     0.16600
C2274       C  0.48376232  0.84279353  0.21950223    -0.32500
C2275       C  0.47518140  0.83782850  0.21398951     0.21000
C2276       C  0.47697614  0.83042579  0.20573584     0.03200
C2277       C  0.48752336  0.82733293  0.20291029    -0.22200
C2278       C  0.49610354  0.83205092  0.20866817     0.12300
S2279       S  0.50575663  0.84440416  0.22279525    -0.05900
C2280       C  0.51303763  0.83558551  0.21483233    -0.09300
C2281       C  0.50685946  0.82956294  0.20765176    -0.25900
S2282       S  0.46542975  0.82521150  0.20017552    -0.03100
C2283       C  0.45816281  0.83277597  0.20936250    -0.16600
C2284       C  0.46440023  0.83913538  0.21616357    -0.14600
H2285       H  0.48230954  0.84854908  0.22595468     0.20800
H2286       H  0.48896492  0.82130026  0.19671194     0.16800
H2287       H  0.51004862  0.82350932  0.20216543     0.19400
H2288       H  0.46120947  0.84423804  0.22253998     0.12700
C2289       C  0.61135247  0.87194120  0.24130719     0.16600
C2290       C  0.62143127  0.87668188  0.24346686    -0.32500
C2291       C  0.62253382  0.88787484  0.24165814     0.21000
C2292       C  0.61403029  0.89409403  0.23779042     0.03200
C2293       C  0.60392076  0.88935645  0.23567827    -0.22200
C2294       C  0.60279482  0.87815930  0.23755399     0.12300
S2295       S  0.60840072  0.85848010  0.24289375    -0.05900
C2296       C  0.59544872  0.86122810  0.23851224    -0.09300
C2297       C  0.59363813  0.87206573  0.23597086    -0.25900
S2298       S  0.61715522  0.90750657  0.23591309    -0.03100
C2299       C  0.63002565  0.90471336  0.24051057    -0.16600
C2300       C  0.63168962  0.89391767  0.24328181    -0.14600
H2301       H  0.62813223  0.87185317  0.24641525     0.20800
H2302       H  0.59723676  0.89417494  0.23267983     0.16800
H2303       H  0.58606093  0.87533216  0.23303413     0.19400
H2304       H  0.63925087  0.89058700  0.24619209     0.12700
loop_ 
_geom_bond_atom_site_label_1 
_geom_bond_atom_site_label_2 
_geom_bond_distance 
_geom_bond_site_symmetry_2 
_ccdc_geom_bond_type 
N1            N2   1.320       .  A
N1            C5   1.347       .  A
N1           Cu9   2.077       .  S
N2            C3   1.343       .  A
N2           Cu8   2.061       .  S
C3            C4   1.382       .  A
C3            H6   1.082       .  S
C4            C5   1.386       .  A
C4         C2280   1.471       .  S
C5            H7   1.082       .  S
Cu8          N11   2.062       .  S
Cu9          N19   2.078       .  S
Cu10         N12   2.088       .  S
Cu10         N18   2.090       .  S
N11          N12   1.321       .  A
N11          C15   1.340       .  A
N12          C13   1.350       .  A
C13          C14   1.390       .  A
C13          H16   1.081       .  S
C14          C15   1.381       .  A
C14        C2264   1.477       .  S
C15          H17   1.081       .  S
N18          N19   1.324       .  A
N18          C22   1.347       .  A
N19          C20   1.345       .  A
C20          C21   1.384       .  A
C20          H23   1.081       .  S
C21          C22   1.386       .  A
C21        C2296   1.479       .  S
C22          H24   1.082       .  S
N25          N26   1.324       .  A
N25          C29   1.348       .  A
N25         Cu33   2.087       .  S
N26          C27   1.343       .  A
N26         Cu32   2.070       .  S
C27          C28   1.380       .  A
C27          H30   1.082       .  S
C28          C29   1.385       .  A
C28        C2248   1.471       .  S
C29          H31   1.082       .  S
Cu32         N35   2.071       .  S
Cu33         N43   2.087       .  S
Cu34         N36   2.066       .  S
Cu34         N42   2.066       .  S
N35          N36   1.321       .  A
N35          C39   1.345       .  A
N36          C37   1.345       .  A
C37          C38   1.383       .  A
C37          H40   1.082       .  S
C38          C39   1.384       .  A
C38        C2232   1.471       .  S
C39          H41   1.082       .  S
N42          N43   1.322       .  A
N42          C46   1.342       .  A
N43          C44   1.349       .  A
C44          C45   1.388       .  A
C44          H47   1.082       .  S
C45          C46   1.383       .  A
C45        C2299   1.478       .  S
C46          H48   1.081       .  S
N49          N50   1.323       .  A
N49          C53   1.352       .  A
N49         Cu57   2.097       .  S
N50          C51   1.343       .  A
N50         Cu56   2.071       .  S
C51          C52   1.379       .  A
C51          H54   1.082       .  S
C52          C53   1.388       .  A
C52        C2200   1.473       .  S
C53          H55   1.082       .  S
Cu56         N59   2.072       .  S
Cu57         N67   2.098       .  S
Cu58         N60   2.080       .  S
Cu58         N66   2.082       .  S
N59          N60   1.320       .  A
N59          C63   1.343       .  A
N60          C61   1.350       .  A
C61          C62   1.389       .  A
C61          H64   1.082       .  S
C62          C63   1.386       .  A
C62        C2184   1.482       .  S
C63          H65   1.081       .  S
N66          N67   1.325       .  A
N66          C70   1.344       .  A
N67          C68   1.350       .  A
C68          C69   1.389       .  A
C68          H71   1.082       .  S
C69          C70   1.382       .  A
C69        C2216   1.480       .  S
C70          H72   1.082       .  S
N73          N74   1.321       .  A
N73          C77   1.347       .  A
N73         Cu81   2.072       .  S
N74          C75   1.343       .  A
N74         Cu80   2.069       .  S
C75          C76   1.382       .  A
C75          H78   1.082       .  S
C76          C77   1.384       .  A
C76        C2283   1.469       .  S
C77          H79   1.082       .  S
Cu80         N83   2.071       .  S
Cu81         N91   2.074       .  S
Cu82         N84   2.092       .  S
Cu82         N90   2.093       .  S
N83          N84   1.322       .  A
N83          C87   1.342       .  A
N84          C85   1.350       .  A
C85          C86   1.389       .  A
C85          H88   1.082       .  S
C86          C87   1.385       .  A
C86        C2168   1.482       .  S
C87          H89   1.081       .  S
N90          N91   1.324       .  A
N90          C94   1.348       .  A
N91          C92   1.344       .  A
C92          C93   1.382       .  A
C92          H95   1.082       .  S
C93          C94   1.388       .  A
C93        C2219   1.479       .  S
C94          H96   1.082       .  S
N97          N98   1.322       .  A
N97         C101   1.348       .  A
N97        Cu105   2.089       .  S
N98          C99   1.346       .  A
N98        Cu104   2.077       .  S
C99         C100   1.384       .  A
C99         H102   1.082       .  S
C100        C101   1.387       .  A
C100       C2203   1.478       .  S
C101        H103   1.082       .  S
Cu104       N107   2.076       .  S
Cu105       N115   2.090       .  S
Cu106       N108   2.093       .  S
Cu106       N114   2.094       .  S
N107        N108   1.323       .  A
N107        C111   1.345       .  A
N108        C109   1.349       .  A
C109        C110   1.387       .  A
C109        H112   1.082       .  S
C110        C111   1.381       .  A
C110       C2139   1.476       .  S
C111        H113   1.082       .  S
N114        N115   1.323       .  A
N114        C118   1.349       .  A
N115        C116   1.348       .  A
C116        C117   1.387       .  A
C116        H119   1.082       .  S
C117        C118   1.389       .  A
C117       C2152   1.486       .  S
C118        H120   1.081       .  S
N121        N122   1.322       .  A
N121        C125   1.354       .  A
N121       Cu129   2.103       .  S
N122        C123   1.339       .  A
N122       Cu128   2.064       .  S
C123        C124   1.382       .  A
C123        H126   1.081       .  S
C124        C125   1.393       .  A
C124       C2120   1.484       .  S
C125        H127   1.082       .  S
Cu128       N131   2.064       .  S
Cu129       N139   2.105       .  S
Cu130       N132   2.082       .  S
Cu130       N138   2.084       .  S
N131        N132   1.320       .  A
N131        C135   1.344       .  A
N132        C133   1.348       .  A
C133        C134   1.387       .  A
C133        H136   1.082       .  S
C134        C135   1.383       .  A
C134       C2107   1.476       .  S
C135        H137   1.082       .  S
N138        N139   1.325       .  A
N138        C142   1.344       .  A
N139        C140   1.352       .  A
C140        C141   1.391       .  A
C140        H143   1.081       .  S
C141        C142   1.384       .  A
C141       C2155   1.486       .  S
C142        H144   1.081       .  S
N145        N146   1.320       .  A
N145        C149   1.353       .  A
N145       Cu153   2.086       .  S
N146        C147   1.339       .  A
N146       Cu152   2.061       .  S
C147        C148   1.380       .  A
C147        H150   1.082       .  S
C148        C149   1.390       .  A
C148       C2123   1.475       .  S
C149        H151   1.082       .  S
Cu152       N155   2.061       .  S
Cu153       N163   2.089       .  S
Cu154       N156   2.090       .  S
Cu154       N162   2.093       .  S
N155        N156   1.320       .  A
N155        C159   1.341       .  A
N156        C157   1.351       .  A
C157        C158   1.391       .  A
C157        H160   1.082       .  S
C158        C159   1.382       .  A
C158       C2072   1.480       .  S
C159        H161   1.082       .  S
N162        N163   1.326       .  A
N162        C166   1.347       .  A
N163        C164   1.346       .  A
C164        C165   1.384       .  A
C164        H167   1.082       .  S
C165        C166   1.385       .  A
C165       C2088   1.478       .  S
C166        H168   1.082       .  S
N169        N170   1.323       .  A
N169        C173   1.349       .  A
N169       Cu177   2.091       .  S
N170        C171   1.344       .  A
N170       Cu176   2.069       .  S
C171        C172   1.380       .  A
C171        H174   1.082       .  S
C172        C173   1.386       .  A
C172       C2059   1.471       .  S
C173        H175   1.082       .  S
Cu176       N179   2.070       .  S
Cu177       N187   2.092       .  S
Cu178       N180   2.076       .  S
Cu178       N186   2.077       .  S
N179        N180   1.320       .  A
N179        C183   1.343       .  A
N180        C181   1.348       .  A
C181        C182   1.387       .  A
C181        H184   1.081       .  S
C182        C183   1.384       .  A
C182       C2040   1.478       .  S
C183        H185   1.081       .  S
N186        N187   1.323       .  A
N186        C190   1.343       .  A
N187        C188   1.350       .  A
C188        C189   1.388       .  A
C188        H191   1.082       .  S
C189        C190   1.384       .  A
C189       C2091   1.481       .  S
C190        H192   1.081       .  S
N193        N194   1.323       .  A
N193        C197   1.348       .  A
N193       Cu201   2.087       .  S
N194        C195   1.345       .  A
N194       Cu200   2.080       .  S
C195        C196   1.383       .  A
C195        H198   1.082       .  S
C196        C197   1.385       .  A
C196       C2008   1.474       .  S
C197        H199   1.082       .  S
Cu200       N203   2.081       .  S
Cu201       N211   2.087       .  S
Cu202       N204   2.089       .  S
Cu202       N210   2.090       .  S
N203        N204   1.323       .  A
N203        C207   1.346       .  A
N204        C205   1.349       .  A
C205        C206   1.387       .  A
C205        H208   1.082       .  S
C206        C207   1.384       .  A
C206       C1992   1.477       .  S
C207        H209   1.082       .  S
N210        N211   1.323       .  A
N210        C214   1.346       .  A
N211        C212   1.349       .  A
C212        C213   1.387       .  A
C212        H215   1.082       .  S
C213        C214   1.388       .  A
C213       C2024   1.484       .  S
C214        H216   1.081       .  S
N217        N218   1.321       .  A
N217        C221   1.350       .  A
N217       Cu225   2.093       .  S
N218        C219   1.342       .  A
N218       Cu224   2.060       .  S
C219        C220   1.380       .  A
C219        H222   1.082       .  S
C220        C221   1.389       .  A
C220       C2056   1.475       .  S
C221        H223   1.082       .  S
Cu224       N227   2.061       .  S
Cu225       N235   2.095       .  S
Cu226       N228   2.083       .  S
Cu226       N234   2.085       .  S
N227        N228   1.320       .  A
N227        C231   1.340       .  A
N228        C229   1.350       .  A
C229        C230   1.388       .  A
C229        H232   1.082       .  S
C230        C231   1.383       .  A
C230       C1976   1.477       .  S
C231        H233   1.081       .  S
N234        N235   1.325       .  A
N234        C238   1.344       .  A
N235        C236   1.350       .  A
C236        C237   1.388       .  A
C236        H239   1.082       .  S
C237        C238   1.384       .  A
C237       C2027   1.482       .  S
C238        H240   1.082       .  S
N241        N242   1.322       .  A
N241        C245   1.345       .  A
N241       Cu249   2.077       .  S
N242        C243   1.345       .  A
N242       Cu248   2.070       .  S
C243        C244   1.383       .  A
C243        H246   1.082       .  S
C244        C245   1.384       .  A
C244       C2251   1.472       .  S
C245        H247   1.082       .  S
Cu248       N251   2.071       .  S
Cu249       N259   2.077       .  S
Cu250       N252   2.089       .  S
Cu250       N258   2.089       .  S
N251        N252   1.323       .  A
N251        C255   1.344       .  A
N252        C253   1.348       .  A
C253        C254   1.387       .  A
C253        H256   1.082       .  S
C254        C255   1.382       .  A
C254       C1944   1.476       .  S
C255        H257   1.082       .  S
N258        N259   1.322       .  A
N258        C262   1.347       .  A
N259        C260   1.346       .  A
C260        C261   1.385       .  A
C260        H263   1.082       .  S
C261        C262   1.389       .  A
C261       C1960   1.483       .  S
C262        H264   1.081       .  S
N265        N266   1.324       .  A
N265        C269   1.350       .  A
N265       Cu273   2.098       .  S
N266        C267   1.345       .  A
N266       Cu272   2.075       .  S
C267        C268   1.382       .  A
C267        H270   1.082       .  S
C268        C269   1.387       .  A
C268       C2011   1.476       .  S
C269        H271   1.082       .  S
Cu272       N275   2.074       .  S
Cu273       N283   2.098       .  S
Cu274       N276   2.075       .  S
Cu274       N282   2.075       .  S
N275        N276   1.321       .  A
N275        C279   1.345       .  A
N276        C277   1.346       .  A
C277        C278   1.384       .  A
C277        H280   1.082       .  S
C278        C279   1.384       .  A
C278       C1928   1.471       .  S
C279        H281   1.082       .  S
N282        N283   1.323       .  A
N282        C286   1.344       .  A
N283        C284   1.351       .  A
C284        C285   1.390       .  A
C284        H287   1.081       .  S
C285        C286   1.384       .  A
C285       C1963   1.483       .  S
C286        H288   1.082       .  S
N289        N290   1.323       .  A
N289        C293   1.347       .  A
N289       Cu297   2.082       .  S
N290        C291   1.344       .  A
N290       Cu296   2.068       .  S
C291        C292   1.381       .  A
C291        H294   1.082       .  S
C292        C293   1.385       .  A
C292       C1899   1.472       .  S
C293        H295   1.082       .  S
Cu296       N299   2.068       .  S
Cu297       N307   2.082       .  S
Cu298       N300   2.079       .  S
Cu298       N306   2.080       .  S
N299        N300   1.322       .  A
N299        C303   1.344       .  A
N300        C301   1.346       .  A
C301        C302   1.385       .  A
C301        H304   1.082       .  S
C302        C303   1.382       .  A
C302       C1883   1.472       .  S
C303        H305   1.082       .  S
N306        N307   1.322       .  A
N306        C310   1.344       .  A
N307        C308   1.348       .  A
C308        C309   1.387       .  A
C308        H311   1.082       .  S
C309        C310   1.385       .  A
C309       C1912   1.479       .  S
C310        H312   1.082       .  S
N313        N314   1.322       .  A
N313        C317   1.355       .  A
N313       Cu321   2.103       .  S
N314        C315   1.339       .  A
N314       Cu320   2.065       .  S
C315        C316   1.382       .  A
C315        H318   1.082       .  S
C316        C317   1.392       .  A
C316       C1864   1.484       .  S
C317        H319   1.082       .  S
Cu320       N323   2.065       .  S
Cu321       N331   2.105       .  S
Cu322       N324   2.080       .  S
Cu322       N330   2.082       .  S
N323        N324   1.319       .  A
N323        C327   1.341       .  A
N324        C325   1.351       .  A
C325        C326   1.390       .  A
C325        H328   1.081       .  S
C326        C327   1.384       .  A
C326       C2171   1.479       .  S
C327        H329   1.082       .  S
N330        N331   1.326       .  A
N330        C334   1.342       .  A
N331        C332   1.352       .  A
C332        C333   1.389       .  A
C332        H335   1.082       .  S
C333        C334   1.383       .  A
C333       C1915   1.483       .  S
C334        H336   1.081       .  S
N337        N338   1.323       .  A
N337        C341   1.356       .  A
N337       Cu345   2.109       .  S
N338        C339   1.338       .  A
N338       Cu344   2.064       .  S
C339        C340   1.380       .  A
C339        H342   1.082       .  S
C340        C341   1.394       .  A
C340       C1832   1.484       .  S
C341        H343   1.082       .  S
Cu344       N347   2.064       .  S
Cu345       N355   2.111       .  S
Cu346       N348   2.071       .  S
Cu346       N354   2.073       .  S
N347        N348   1.319       .  A
N347        C351   1.343       .  A
N348        C349   1.347       .  A
C349        C350   1.386       .  A
C349        H352   1.082       .  S
C350        C351   1.383       .  A
C350       C1819   1.472       .  S
C351        H353   1.082       .  S
N354        N355   1.325       .  A
N354        C358   1.342       .  A
N355        C356   1.353       .  A
C356        C357   1.392       .  A
C356        H359   1.082       .  S
C357        C358   1.382       .  A
C357       C1848   1.484       .  S
C358        H360   1.081       .  S
N361        N362   1.321       .  A
N361        C365   1.350       .  A
N361       Cu369   2.086       .  S
N362        C363   1.341       .  A
N362       Cu368   2.055       .  S
C363        C364   1.379       .  A
C363        H366   1.082       .  S
C364        C365   1.388       .  A
C364       C1896   1.471       .  S
C365        H367   1.082       .  S
Cu368       N371   2.057       .  S
Cu369       N379   2.089       .  S
Cu370       N372   2.091       .  S
Cu370       N378   2.094       .  S
N371        N372   1.321       .  A
N371        C375   1.340       .  A
N372        C373   1.351       .  A
C373        C374   1.391       .  A
C373        H376   1.082       .  S
C374        C375   1.381       .  A
C374       C1803   1.478       .  S
C375        H377   1.082       .  S
N378        N379   1.325       .  A
N378        C382   1.347       .  A
N379        C380   1.348       .  A
C380        C381   1.385       .  A
C380        H383   1.082       .  S
C381        C382   1.386       .  A
C381       C1851   1.480       .  S
C382        H384   1.082       .  S
N385        N386   1.322       .  A
N385        C389   1.354       .  A
N385       Cu393   2.095       .  S
N386        C387   1.340       .  A
N386       Cu392   2.066       .  S
C387        C388   1.381       .  A
C387        H390   1.082       .  S
C388        C389   1.391       .  A
C388       C1768   1.479       .  S
C389        H391   1.082       .  S
Cu392       N395   2.066       .  S
Cu393       N403   2.097       .  S
Cu394       N396   2.084       .  S
Cu394       N402   2.086       .  S
N395        N396   1.321       .  A
N395        C399   1.343       .  A
N396        C397   1.349       .  A
C397        C398   1.387       .  A
C397        H400   1.082       .  S
C398        C399   1.383       .  A
C398       C2043   1.476       .  S
C399        H401   1.082       .  S
N402        N403   1.325       .  A
N402        C406   1.347       .  A
N403        C404   1.348       .  A
C404        C405   1.387       .  A
C404        H407   1.082       .  S
C405        C406   1.386       .  A
C405       C1784   1.483       .  S
C406        H408   1.082       .  S
N409        N410   1.323       .  A
N409        C413   1.352       .  A
N409       Cu417   2.096       .  S
N410        C411   1.342       .  A
N410       Cu416   2.072       .  S
C411        C412   1.381       .  A
C411        H414   1.082       .  S
C412        C413   1.388       .  A
C412       C1835   1.477       .  S
C413        H415   1.082       .  S
Cu416       N419   2.072       .  S
Cu417       N427   2.097       .  S
Cu418       N420   2.079       .  S
Cu418       N426   2.081       .  S
N419        N420   1.320       .  A
N419        C423   1.344       .  A
N420        C421   1.349       .  A
C421        C422   1.387       .  A
C421        H424   1.082       .  S
C422        C423   1.385       .  A
C422       C1752   1.478       .  S
C423        H425   1.082       .  S
N426        N427   1.324       .  A
N426        C430   1.344       .  A
N427        C428   1.350       .  A
C428        C429   1.389       .  A
C428        H431   1.082       .  S
C429        C430   1.383       .  A
C429       C1787   1.482       .  S
C430        H432   1.082       .  S
N433        N434   1.321       .  A
N433        C437   1.348       .  A
N433       Cu441   2.085       .  S
N434        C435   1.343       .  A
N434       Cu440   2.064       .  S
C435        C436   1.381       .  A
C435        H438   1.082       .  S
C436        C437   1.386       .  A
C436       C1720   1.472       .  S
C437        H439   1.082       .  S
Cu440       N443   2.065       .  S
Cu441       N451   2.087       .  S
Cu442       N444   2.095       .  S
Cu442       N450   2.097       .  S
N443        N444   1.322       .  A
N443        C447   1.341       .  A
N444        C445   1.352       .  A
C445        C446   1.390       .  A
C445        H448   1.082       .  S
C446        C447   1.381       .  A
C446       C1707   1.479       .  S
C447        H449   1.082       .  S
N450        N451   1.324       .  A
N450        C454   1.349       .  A
N451        C452   1.347       .  A
C452        C453   1.385       .  A
C452        H455   1.082       .  S
C453        C454   1.389       .  A
C453       C1736   1.484       .  S
C454        H456   1.081       .  S
N457        N458   1.323       .  A
N457        C461   1.355       .  A
N457       Cu465   2.106       .  S
N458        C459   1.340       .  A
N458       Cu464   2.059       .  S
C459        C460   1.378       .  A
C459        H462   1.082       .  S
C460        C461   1.391       .  A
C460       C1771   1.476       .  S
C461        H463   1.082       .  S
Cu464       N467   2.059       .  S
Cu465       N475   2.108       .  S
Cu466       N468   2.080       .  S
Cu466       N474   2.083       .  S
N467        N468   1.320       .  A
N467        C471   1.341       .  A
N468        C469   1.349       .  A
C469        C470   1.387       .  A
C469        H472   1.081       .  S
C470        C471   1.381       .  A
C470       C1979   1.472       .  S
C471        H473   1.082       .  S
N474        N475   1.326       .  A
N474        C478   1.344       .  A
N475        C476   1.352       .  A
C476        C477   1.390       .  A
C476        H479   1.081       .  S
C477        C478   1.383       .  A
C477       C1739   1.484       .  S
C478        H480   1.082       .  S
N481        N482   1.323       .  A
N481        C485   1.348       .  A
N481       Cu489   2.083       .  S
N482        C483   1.343       .  A
N482       Cu488   2.071       .  S
C483        C484   1.382       .  A
C483        H486   1.082       .  S
C484        C485   1.386       .  A
C484       C1672   1.474       .  S
C485        H487   1.082       .  S
Cu488       N491   2.071       .  S
Cu489       N499   2.083       .  S
Cu490       N492   2.079       .  S
Cu490       N498   2.079       .  S
N491        N492   1.322       .  A
N491        C495   1.346       .  A
N492        C493   1.345       .  A
C493        C494   1.384       .  A
C493        H496   1.082       .  S
C494        C495   1.382       .  A
C494       C1656   1.470       .  S
C495        H497   1.082       .  S
N498        N499   1.322       .  A
N498        C502   1.345       .  A
N499        C500   1.347       .  A
C500        C501   1.386       .  A
C500        H503   1.082       .  S
C501        C502   1.386       .  A
C501       C1688   1.480       .  S
C502        H504   1.081       .  S
N505        N506   1.323       .  A
N505        C509   1.347       .  A
N505       Cu513   2.085       .  S
N506        C507   1.344       .  A
N506       Cu512   2.072       .  S
C507        C508   1.382       .  A
C507        H510   1.082       .  S
C508        C509   1.385       .  A
C508       C1723   1.473       .  S
C509        H511   1.082       .  S
Cu512       N515   2.071       .  S
Cu513       N523   2.084       .  S
Cu514       N516   2.075       .  S
Cu514       N522   2.075       .  S
N515        N516   1.321       .  A
N515        C519   1.345       .  A
N516        C517   1.346       .  A
C517        C518   1.386       .  A
C517        H520   1.082       .  S
C518        C519   1.383       .  A
C518       C1640   1.474       .  S
C519        H521   1.082       .  S
N522        N523   1.322       .  A
N522        C526   1.343       .  A
N523        C524   1.349       .  A
C524        C525   1.388       .  A
C524        H527   1.081       .  S
C525        C526   1.384       .  A
C525       C1691   1.479       .  S
C526        H528   1.081       .  S
N529        N530   1.324       .  A
N529        C533   1.349       .  A
N529       Cu537   2.096       .  S
N530        C531   1.344       .  A
N530       Cu536   2.074       .  S
C531        C532   1.380       .  A
C531        H534   1.082       .  S
C532        C533   1.386       .  A
C532       C1675   1.473       .  S
C533        H535   1.082       .  S
Cu536       N539   2.073       .  S
Cu537       N547   2.095       .  S
Cu538       N540   2.067       .  S
Cu538       N546   2.068       .  S
N539        N540   1.321       .  A
N539        C543   1.346       .  A
N540        C541   1.343       .  A
C541        C542   1.382       .  A
C541        H544   1.082       .  S
C542        C543   1.385       .  A
C542       C1608   1.470       .  S
C543        H545   1.082       .  S
N546        N547   1.322       .  A
N546        C550   1.343       .  A
N547        C548   1.351       .  A
C548        C549   1.390       .  A
C548        H551   1.081       .  S
C549        C550   1.383       .  A
C549       C1627   1.481       .  S
C550        H552   1.082       .  S
N553        N554   1.322       .  A
N553        C557   1.356       .  A
N553       Cu561   2.106       .  S
N554        C555   1.338       .  A
N554       Cu560   2.063       .  S
C555        C556   1.381       .  A
C555        H558   1.082       .  S
C556        C557   1.394       .  A
C556       C1867   1.485       .  S
C557        H559   1.082       .  S
Cu560       N563   2.064       .  S
Cu561       N571   2.108       .  S
Cu562       N564   2.068       .  S
Cu562       N570   2.070       .  S
N563        N564   1.319       .  A
N563        C567   1.343       .  A
N564        C565   1.346       .  A
C565        C566   1.385       .  A
C565        H568   1.081       .  S
C566        C567   1.385       .  A
C566       C2267   1.474       .  S
C567        H569   1.081       .  S
N570        N571   1.324       .  A
N570        C574   1.342       .  A
N571        C572   1.352       .  A
C572        C573   1.391       .  A
C572        H575   1.082       .  S
C573        C574   1.382       .  A
C573       C1624   1.483       .  S
C574        H576   1.081       .  S
N577        N578   1.323       .  A
N577        C581   1.347       .  A
N577       Cu585   2.081       .  S
N578        C579   1.345       .  A
N578       Cu584   2.077       .  S
C579        C580   1.383       .  A
C579        H582   1.082       .  S
C580        C581   1.385       .  A
C580       C1576   1.474       .  S
C581        H583   1.082       .  S
Cu584       N587   2.077       .  S
Cu585       N595   2.082       .  S
Cu586       N588   2.075       .  S
Cu586       N594   2.075       .  S
N587        N588   1.322       .  A
N587        C591   1.345       .  A
N588        C589   1.346       .  A
C589        C590   1.383       .  A
C589        H592   1.082       .  S
C590        C591   1.382       .  A
C590       C1947   1.470       .  S
C591        H593   1.082       .  S
N594        N595   1.322       .  A
N594        C598   1.345       .  A
N595        C596   1.346       .  A
C596        C597   1.386       .  A
C596        H599   1.082       .  S
C597        C598   1.385       .  A
C597       C1592   1.478       .  S
C598        H600   1.082       .  S
N601        N602   1.322       .  A
N601        C605   1.355       .  A
N601       Cu609   2.104       .  S
N602        C603   1.338       .  A
N602       Cu608   2.060       .  S
C603        C604   1.382       .  A
C603        H606   1.081       .  S
C604        C605   1.394       .  A
C604       C1563   1.485       .  S
C605        H607   1.082       .  S
Cu608       N611   2.059       .  S
Cu609       N619   2.106       .  S
Cu610       N612   2.073       .  S
Cu610       N618   2.075       .  S
N611        N612   1.319       .  A
N611        C615   1.342       .  A
N612        C613   1.348       .  A
C613        C614   1.386       .  A
C613        H616   1.082       .  S
C614        C615   1.381       .  A
C614       C1643   1.470       .  S
C615        H617   1.082       .  S
N618        N619   1.325       .  A
N618        C622   1.342       .  A
N619        C620   1.352       .  A
C620        C621   1.390       .  A
C620        H623   1.082       .  S
C621        C622   1.380       .  A
C621       C1595   1.480       .  S
C622        H624   1.082       .  S
N625        N626   1.321       .  A
N625        C629   1.353       .  A
N625       Cu633   2.087       .  S
N626        C627   1.337       .  A
N626       Cu632   2.056       .  S
C627        C628   1.379       .  A
C627        H630   1.082       .  S
C628        C629   1.390       .  A
C628       C1528   1.474       .  S
C629        H631   1.082       .  S
Cu632       N635   2.056       .  S
Cu633       N643   2.090       .  S
Cu634       N636   2.093       .  S
Cu634       N642   2.096       .  S
N635        N636   1.320       .  A
N635        C639   1.342       .  A
N636        C637   1.351       .  A
C637        C638   1.389       .  A
C637        H640   1.082       .  S
C638        C639   1.380       .  A
C638       C1515   1.473       .  S
C639        H641   1.082       .  S
N642        N643   1.327       .  A
N642        C646   1.346       .  A
N643        C644   1.347       .  A
C644        C645   1.384       .  A
C644        H647   1.082       .  S
C645        C646   1.386       .  A
C645       C1547   1.480       .  S
C646        H648   1.082       .  S
N649        N650   1.323       .  A
N649        C653   1.347       .  A
N649       Cu657   2.082       .  S
N650        C651   1.345       .  A
N650       Cu656   2.075       .  S
C651        C652   1.383       .  A
C651        H654   1.082       .  S
C652        C653   1.384       .  A
C652       C1579   1.473       .  S
C653        H655   1.082       .  S
Cu656       N659   2.074       .  S
Cu657       N667   2.082       .  S
Cu658       N660   2.078       .  S
Cu658       N666   2.078       .  S
N659        N660   1.322       .  A
N659        C663   1.346       .  A
N660        C661   1.345       .  A
C661        C662   1.385       .  A
C661        H664   1.082       .  S
C662        C663   1.383       .  A
C662       C2235   1.473       .  S
C663        H665   1.082       .  S
N666        N667   1.322       .  A
N666        C670   1.344       .  A
N667        C668   1.349       .  A
C668        C669   1.387       .  A
C668        H671   1.082       .  S
C669        C670   1.384       .  A
C669       C1544   1.478       .  S
C670        H672   1.082       .  S
N673        N674   1.323       .  A
N673        C677   1.355       .  A
N673       Cu681   2.104       .  S
N674        C675   1.336       .  A
N674       Cu680   2.058       .  S
C675        C676   1.378       .  A
C675        H678   1.082       .  S
C676        C677   1.391       .  A
C676       C1531   1.478       .  S
C677        H679   1.082       .  S
Cu680       N683   2.059       .  S
Cu681       N691   2.106       .  S
Cu682       N684   2.078       .  S
Cu682       N690   2.081       .  S
N683        N684   1.318       .  A
N683        C687   1.343       .  A
N684        C685   1.349       .  A
C685        C686   1.388       .  A
C685        H688   1.081       .  S
C686        C687   1.385       .  A
C686       C1483   1.477       .  S
C687        H689   1.082       .  S
N690        N691   1.325       .  A
N690        C694   1.342       .  A
N691        C692   1.353       .  A
C692        C693   1.391       .  A
C692        H695   1.082       .  S
C693        C694   1.382       .  A
C693       C1496   1.483       .  S
C694        H696   1.082       .  S
N697        N698   1.321       .  A
N697        C701   1.352       .  A
N697       Cu705   2.096       .  S
N698        C699   1.340       .  A
N698       Cu704   2.060       .  S
C699        C700   1.383       .  A
C699        H702   1.081       .  S
C700        C701   1.392       .  A
C700       C1464   1.482       .  S
C701        H703   1.081       .  S
Cu704       N707   2.060       .  S
Cu705       N715   2.098       .  S
Cu706       N708   2.083       .  S
Cu706       N714   2.085       .  S
N707        N708   1.320       .  A
N707        C711   1.342       .  A
N708        C709   1.349       .  A
C709        C710   1.388       .  A
C709        H712   1.082       .  S
C710        C711   1.381       .  A
C710       C1880   1.473       .  S
C711        H713   1.082       .  S
N714        N715   1.325       .  A
N714        C718   1.345       .  A
N715        C716   1.350       .  A
C716        C717   1.388       .  A
C716        H719   1.082       .  S
C717        C718   1.386       .  A
C717       C1499   1.484       .  S
C718        H720   1.081       .  S
N721        N722   1.324       .  A
N721        C725   1.349       .  A
N721       Cu729   2.092       .  S
N722        C723   1.344       .  A
N722       Cu728   2.079       .  S
C723        C724   1.382       .  A
C723        H726   1.082       .  S
C724        C725   1.386       .  A
C724       C1432   1.475       .  S
C725        H727   1.082       .  S
Cu728       N731   2.079       .  S
Cu729       N739   2.091       .  S
Cu730       N732   2.071       .  S
Cu730       N738   2.072       .  S
N731        N732   1.321       .  A
N731        C735   1.348       .  A
N732        C733   1.344       .  A
C733        C734   1.382       .  A
C733        H736   1.082       .  S
C734        C735   1.386       .  A
C734       C2104   1.472       .  S
C735        H737   1.082       .  S
N738        N739   1.322       .  A
N738        C742   1.343       .  A
N739        C740   1.350       .  A
C740        C741   1.390       .  A
C740        H743   1.081       .  S
C741        C742   1.384       .  A
C741       C1448   1.481       .  S
C742        H744   1.082       .  S
N745        N746   1.321       .  A
N745        C749   1.353       .  A
N745       Cu753   2.096       .  S
N746        C747   1.341       .  A
N746       Cu752   2.062       .  S
C747        C748   1.380       .  A
C747        H750   1.082       .  S
C748        C749   1.390       .  A
C748       C1467   1.476       .  S
C749        H751   1.082       .  S
Cu752       N755   2.062       .  S
Cu753       N763   2.099       .  S
Cu754       N756   2.090       .  S
Cu754       N762   2.093       .  S
N755        N756   1.320       .  A
N755        C759   1.341       .  A
N756        C757   1.351       .  A
C757        C758   1.390       .  A
C757        H760   1.082       .  S
C758        C759   1.382       .  A
C758       C1800   1.478       .  S
C759        H761   1.082       .  S
N762        N763   1.326       .  A
N762        C766   1.347       .  A
N763        C764   1.348       .  A
C764        C765   1.386       .  A
C764        H767   1.082       .  S
C765        C766   1.386       .  A
C765       C1451   1.484       .  S
C766        H768   1.081       .  S
N769        N770   1.321       .  A
N769        C773   1.353       .  A
N769       Cu777   2.089       .  S
N770        C771   1.337       .  A
N770       Cu776   2.059       .  S
C771        C772   1.382       .  A
C771        H774   1.081       .  S
C772        C773   1.391       .  A
C772       C1400   1.480       .  S
C773        H775   1.082       .  S
Cu776       N779   2.059       .  S
Cu777       N787   2.091       .  S
Cu778       N780   2.079       .  S
Cu778       N786   2.082       .  S
N779        N780   1.319       .  A
N779        C783   1.341       .  A
N780        C781   1.349       .  A
C781        C782   1.388       .  A
C781        H784   1.082       .  S
C782        C783   1.383       .  A
C782       C1387   1.475       .  S
C783        H785   1.082       .  S
N786        N787   1.325       .  A
N786        C790   1.343       .  A
N787        C788   1.349       .  A
C788        C789   1.387       .  A
C788        H791   1.081       .  S
C789        C790   1.382       .  A
C789       C1416   1.478       .  S
C790        H792   1.082       .  S
N793        N794   1.322       .  A
N793        C797   1.353       .  A
N793       Cu801   2.092       .  S
N794        C795   1.341       .  A
N794       Cu800   2.069       .  S
C795        C796   1.380       .  A
C795        H798   1.082       .  S
C796        C797   1.389       .  A
C796       C1560   1.475       .  S
C797        H799   1.082       .  S
Cu800       N803   2.069       .  S
Cu801       N811   2.094       .  S
Cu802       N804   2.079       .  S
Cu802       N810   2.081       .  S
N803        N804   1.320       .  A
N803        C807   1.342       .  A
N804        C805   1.350       .  A
C805        C806   1.388       .  A
C805        H808   1.082       .  S
C806        C807   1.385       .  A
C806       C1704   1.479       .  S
C807        H809   1.081       .  S
N810        N811   1.325       .  A
N810        C814   1.343       .  A
N811        C812   1.350       .  A
C812        C813   1.387       .  A
C812        H815   1.082       .  S
C813        C814   1.384       .  A
C813       C1419   1.480       .  S
C814        H816   1.081       .  S
N817        N818   1.321       .  A
N817        C821   1.353       .  A
N817       Cu825   2.094       .  S
N818        C819   1.338       .  A
N818       Cu824   2.057       .  S
C819        C820   1.380       .  A
C819        H822   1.082       .  S
C820        C821   1.391       .  A
C820       C1403   1.477       .  S
C821        H823   1.082       .  S
Cu824       N827   2.057       .  S
Cu825       N835   2.097       .  S
Cu826       N828   2.091       .  S
Cu826       N834   2.094       .  S
N827        N828   1.320       .  A
N827        C831   1.341       .  A
N828        C829   1.351       .  A
C829        C830   1.390       .  A
C829        H832   1.082       .  S
C830        C831   1.381       .  A
C830       C1352   1.477       .  S
C831        H833   1.082       .  S
N834        N835   1.326       .  A
N834        C838   1.346       .  A
N835        C836   1.350       .  A
C836        C837   1.387       .  A
C836        H839   1.082       .  S
C837        C838   1.386       .  A
C837       C1368   1.485       .  S
C838        H840   1.082       .  S
N841        N842   1.322       .  A
N841        C845   1.349       .  A
N841       Cu849   2.091       .  S
N842        C843   1.343       .  A
N842       Cu848   2.063       .  S
C843        C844   1.380       .  A
C843        H846   1.083       .  S
C844        C845   1.387       .  A
C844       C1435   1.471       .  S
C845        H847   1.082       .  S
Cu848       N851   2.064       .  S
Cu849       N859   2.092       .  S
Cu850       N852   2.091       .  S
Cu850       N858   2.093       .  S
N851        N852   1.321       .  A
N851        C855   1.343       .  A
N852        C853   1.350       .  A
C853        C854   1.388       .  A
C853        H856   1.082       .  S
C854        C855   1.382       .  A
C854       C2075   1.477       .  S
C855        H857   1.082       .  S
N858        N859   1.325       .  A
N858        C862   1.346       .  A
N859        C860   1.350       .  A
C860        C861   1.388       .  A
C860        H863   1.081       .  S
C861        C862   1.386       .  A
C861       C1371   1.484       .  S
C862        H864   1.081       .  S
N865        N866   1.324       .  A
N865        C869   1.349       .  A
N865       Cu873   2.088       .  S
N866        C867   1.342       .  A
N866       Cu872   2.073       .  S
C867        C868   1.379       .  A
C867        H870   1.086       .  S
C868        C869   1.385       .  A
C868       C1320   1.470       .  S
C869        H871   1.081       .  S
Cu872       N875   2.073       .  S
Cu873       N883   2.088       .  S
Cu874       N876   2.064       .  S
Cu874       N882   2.064       .  S
N875        N876   1.320       .  A
N875        C879   1.346       .  A
N876        C877   1.344       .  A
C877        C878   1.382       .  A
C877        H880   1.082       .  S
C878        C879   1.384       .  A
C878       C1931   1.468       .  S
C879        H881   1.082       .  S
N882        N883   1.322       .  A
N882        C886   1.341       .  A
N883        C884   1.350       .  A
C884        C885   1.388       .  A
C884        H887   1.082       .  S
C885        C886   1.380       .  A
C885       C1336   1.475       .  S
C886        H888   1.082       .  S
N889        N890   1.322       .  A
N889        C893   1.347       .  A
N889       Cu897   2.081       .  S
N890        C891   1.345       .  A
N890       Cu896   2.070       .  S
C891        C892   1.381       .  A
C891        H894   1.082       .  S
C892        C893   1.384       .  A
C892       C1304   1.468       .  S
C893        H895   1.082       .  S
Cu896       N899   2.070       .  S
Cu897       N907   2.082       .  S
Cu898       N900   2.077       .  S
Cu898       N906   2.077       .  S
N899        N900   1.322       .  A
N899        C903   1.343       .  A
N900        C901   1.347       .  A
C901        C902   1.385       .  A
C901        H904   1.082       .  S
C902        C903   1.382       .  A
C902       C1659   1.472       .  S
C903        H905   1.082       .  S
N906        N907   1.323       .  A
N906        C910   1.345       .  A
N907        C908   1.346       .  A
C908        C909   1.385       .  A
C908        H911   1.082       .  S
C909        C910   1.386       .  A
C909       C1339   1.477       .  S
C910        H912   1.082       .  S
N913        N914   1.323       .  A
N913        C917   1.349       .  A
N913       Cu921   2.093       .  S
N914        C915   1.343       .  A
N914       Cu920   2.066       .  S
C915        C916   1.379       .  A
C915        H918   1.082       .  S
C916        C917   1.387       .  A
C916       C1272   1.470       .  S
C917        H919   1.082       .  S
Cu920       N923   2.066       .  S
Cu921       N931   2.094       .  S
Cu922       N924   2.079       .  S
Cu922       N930   2.081       .  S
N923        N924   1.320       .  A
N923        C927   1.342       .  A
N924        C925   1.349       .  A
C925        C926   1.388       .  A
C925        H928   1.081       .  S
C926        C927   1.384       .  A
C926       C1384   1.478       .  S
C927        H929   1.081       .  S
N930        N931   1.324       .  A
N930        C934   1.343       .  A
N931        C932   1.352       .  A
C932        C933   1.389       .  A
C932        H935   1.081       .  S
C933        C934   1.384       .  A
C933       C1288   1.483       .  S
C934        H936   1.081       .  S
N937        N938   1.322       .  A
N937        C941   1.348       .  A
N937       Cu945   2.086       .  S
N938        C939   1.343       .  A
N938       Cu944   2.067       .  S
C939        C940   1.381       .  A
C939        H942   1.082       .  S
C940        C941   1.387       .  A
C940       C1323   1.474       .  S
C941        H943   1.080       .  S
Cu944       N947   2.068       .  S
Cu945       N955   2.086       .  S
Cu946       N948   2.093       .  S
Cu946       N954   2.094       .  S
N947        N948   1.322       .  A
N947        C951   1.344       .  A
N948        C949   1.350       .  A
C949        C950   1.389       .  A
C949        H952   1.082       .  S
C950        C951   1.382       .  A
C950       C1995   1.477       .  S
C951        H953   1.082       .  S
N954        N955   1.324       .  A
N954        C958   1.346       .  A
N955        C956   1.349       .  A
C956        C957   1.387       .  A
C956        H959   1.082       .  S
C957        C958   1.388       .  A
C957       C1291   1.484       .  S
C958        H960   1.081       .  S
N961        N962   1.322       .  A
N961        C965   1.348       .  A
N961       Cu969   2.078       .  S
N962        C963   1.342       .  A
N962       Cu968   2.068       .  S
C963        C964   1.380       .  A
C963        H966   1.082       .  S
C964        C965   1.386       .  A
C964       C1275   1.471       .  S
C965        H967   1.082       .  S
Cu968       N971   2.069       .  S
Cu969       N979   2.079       .  S
Cu970       N972   2.079       .  S
Cu970       N978   2.081       .  S
N971        N972   1.320       .  A
N971        C975   1.343       .  A
N972        C973   1.349       .  A
C973        C974   1.388       .  A
C973        H976   1.081       .  S
C974        C975   1.384       .  A
C974       C1355   1.479       .  S
C975        H977   1.081       .  S
N978        N979   1.324       .  A
N978        C982   1.344       .  A
N979        C980   1.347       .  A
C980        C981   1.385       .  A
C980        H983   1.082       .  S
C981        C982   1.384       .  A
C981       C1256   1.476       .  S
C982        H984   1.082       .  S
N985        N986   1.321       .  A
N985        C989   1.348       .  A
N985       Cu993   2.076       .  S
N986        C987   1.342       .  A
N986       Cu992   2.067       .  S
C987        C988   1.380       .  A
C987        H990   1.082       .  S
C988        C989   1.384       .  A
C988       C1243   1.467       .  S
C989        H991   1.082       .  S
Cu992       N995   2.068       .  S
Cu993      N1003   2.077       .  S
Cu994       N996   2.083       .  S
Cu994      N1002   2.084       .  S
N995        N996   1.321       .  A
N995        C999   1.342       .  A
N996        C997   1.350       .  A
C997        C998   1.389       .  A
C997       H1000   1.081       .  S
C998        C999   1.383       .  A
C998       C1755   1.478       .  S
C999       H1001   1.082       .  S
N1002      N1003   1.324       .  A
N1002      C1006   1.345       .  A
N1003      C1004   1.346       .  A
C1004      C1005   1.383       .  A
C1004      H1007   1.082       .  S
C1005      C1006   1.386       .  A
C1005      C1259   1.477       .  S
C1006      H1008   1.081       .  S
N1009      N1010   1.321       .  A
N1009      C1013   1.355       .  A
N1009     Cu1017   2.101       .  S
N1010      C1011   1.340       .  A
N1010     Cu1016   2.065       .  S
C1011      C1012   1.382       .  A
C1011      H1014   1.082       .  S
C1012      C1013   1.394       .  A
C1012      C1208   1.484       .  S
C1013      H1015   1.082       .  S
Cu1016     N1019   2.066       .  S
Cu1017     N1027   2.103       .  S
Cu1018     N1020   2.087       .  S
Cu1018     N1026   2.089       .  S
N1019      N1020   1.321       .  A
N1019      C1023   1.343       .  A
N1020      C1021   1.350       .  A
C1021      C1022   1.389       .  A
C1021      H1024   1.082       .  S
C1022      C1023   1.382       .  A
C1022      C2136   1.477       .  S
C1023      H1025   1.082       .  S
N1026      N1027   1.326       .  A
N1026      C1030   1.347       .  A
N1027      C1028   1.349       .  A
C1028      C1029   1.388       .  A
C1028      H1031   1.082       .  S
C1029      C1030   1.385       .  A
C1029      C1224   1.484       .  S
C1030      H1032   1.082       .  S
N1033      N1034   1.323       .  A
N1033      C1037   1.345       .  A
N1033     Cu1041   2.080       .  S
N1034      C1035   1.346       .  A
N1034     Cu1040   2.075       .  S
C1035      C1036   1.384       .  A
C1035      H1038   1.082       .  S
C1036      C1037   1.384       .  A
C1036      C1240   1.473       .  S
C1037      H1039   1.082       .  S
Cu1040     N1043   2.075       .  S
Cu1041     N1051   2.080       .  S
Cu1042     N1044   2.081       .  S
Cu1042     N1050   2.082       .  S
N1043      N1044   1.323       .  A
N1043      C1047   1.345       .  A
N1044      C1045   1.346       .  A
C1045      C1046   1.384       .  A
C1045      H1048   1.082       .  S
C1046      C1047   1.383       .  A
C1046      C1816   1.472       .  S
C1047      H1049   1.082       .  S
N1050      N1051   1.322       .  A
N1050      C1054   1.346       .  A
N1051      C1052   1.347       .  A
C1052      C1053   1.387       .  A
C1052      H1055   1.082       .  S
C1053      C1054   1.386       .  A
C1053      C1227   1.481       .  S
C1054      H1056   1.082       .  S
N1057      N1058   1.323       .  A
N1057      C1061   1.349       .  A
N1057     Cu1065   2.090       .  S
N1058      C1059   1.344       .  A
N1058     Cu1064   2.073       .  S
C1059      C1060   1.384       .  A
C1059      H1062   1.081       .  S
C1060      C1061   1.388       .  A
C1060      C1307   1.480       .  S
C1061      H1063   1.082       .  S
Cu1064     N1067   2.072       .  S
Cu1065     N1075   2.090       .  S
Cu1066     N1068   2.067       .  S
Cu1066     N1074   2.068       .  S
N1067      N1068   1.321       .  A
N1067      C1071   1.345       .  A
N1068      C1069   1.344       .  A
C1069      C1070   1.381       .  A
C1069      H1072   1.082       .  S
C1070      C1071   1.383       .  A
C1070      C1611   1.466       .  S
C1071      H1073   1.082       .  S
N1074      N1075   1.322       .  A
N1074      C1078   1.343       .  A
N1075      C1076   1.348       .  A
C1076      C1077   1.388       .  A
C1076      H1079   1.082       .  S
C1077      C1078   1.384       .  A
C1077      C1192   1.480       .  S
C1078      H1080   1.081       .  S
N1081      N1082   1.322       .  A
N1081      C1085   1.348       .  A
N1081     Cu1089   2.084       .  S
N1082      C1083   1.344       .  A
N1082     Cu1088   2.071       .  S
C1083      C1084   1.382       .  A
C1083      H1086   1.082       .  S
C1084      C1085   1.387       .  A
C1084      C1176   1.475       .  S
C1085      H1087   1.082       .  S
Cu1088     N1091   2.072       .  S
Cu1089     N1099   2.085       .  S
Cu1090     N1092   2.084       .  S
Cu1090     N1098   2.085       .  S
N1091      N1092   1.322       .  A
N1091      C1095   1.343       .  A
N1092      C1093   1.349       .  A
C1093      C1094   1.388       .  A
C1093      H1096   1.081       .  S
C1094      C1095   1.384       .  A
C1094      C1512   1.478       .  S
C1095      H1097   1.081       .  S
N1098      N1099   1.324       .  A
N1098      C1102   1.345       .  A
N1099      C1100   1.348       .  A
C1100      C1101   1.386       .  A
C1100      H1103   1.082       .  S
C1101      C1102   1.384       .  A
C1101      C1195   1.478       .  S
C1102      H1104   1.082       .  S
N1105      N1106   1.322       .  A
N1105      C1109   1.351       .  A
N1105     Cu1113   2.098       .  S
N1106      C1107   1.343       .  A
N1106     Cu1112   2.065       .  S
C1107      C1108   1.380       .  A
C1107      H1110   1.082       .  S
C1108      C1109   1.389       .  A
C1108      C1179   1.475       .  S
C1109      H1111   1.082       .  S
Cu1112     N1115   2.066       .  S
Cu1113     N1123   2.100       .  S
Cu1114     N1116   2.091       .  S
Cu1114     N1122   2.093       .  S
N1115      N1116   1.321       .  A
N1115      C1119   1.342       .  A
N1116      C1117   1.351       .  A
C1117      C1118   1.390       .  A
C1117      H1120   1.081       .  S
C1118      C1119   1.383       .  A
C1118      C1480   1.479       .  S
C1119      H1121   1.081       .  S
N1122      N1123   1.325       .  A
N1122      C1126   1.347       .  A
N1123      C1124   1.350       .  A
C1124      C1125   1.389       .  A
C1124      H1127   1.081       .  S
C1125      C1126   1.386       .  A
C1125      C1160   1.487       .  S
C1126      H1128   1.082       .  S
N1129      N1130   1.321       .  A
N1129      C1133   1.354       .  A
N1129     Cu1137   2.109       .  S
N1130      C1131   1.343       .  A
N1130     Cu1136   2.063       .  S
C1131      C1132   1.380       .  A
C1131      H1134   1.082       .  S
C1132      C1133   1.392       .  A
C1132      C1211   1.478       .  S
C1133      H1135   1.081       .  S
Cu1136     N1139   2.063       .  S
Cu1137     N1147   2.111       .  S
Cu1138     N1140   2.099       .  S
Cu1138     N1146   2.101       .  S
N1139      N1140   1.321       .  A
N1139      C1143   1.340       .  A
N1140      C1141   1.354       .  A
C1141      C1142   1.392       .  A
C1141      H1144   1.082       .  S
C1142      C1143   1.381       .  A
C1142      C2187   1.481       .  S
C1143      H1145   1.082       .  S
N1146      N1147   1.327       .  A
N1146      C1150   1.349       .  A
N1147      C1148   1.350       .  A
C1148      C1149   1.389       .  A
C1148      H1151   1.082       .  S
C1149      C1150   1.387       .  A
C1149      C1163   1.489       .  S
C1150      H1152   1.082       .  S
C1153      C1158   1.386       .  A
C1153      C1154   1.406       .  A
C1153      S1159   1.711       .  A
C1154      C1155   1.407       .  A
C1154      H1165   1.083       .  S
C1155      C1164   1.378       .  A
C1155      C1156   1.386       .  A
C1156      C1157   1.406       .  A
C1156      S1162   1.712       .  A
C1157      C1158   1.406       .  A
C1157      H1166   1.083       .  S
C1158      C1161   1.377       .  A
S1159      C1160   1.727       .  A
C1160      C1161   1.391       .  A
C1161      H1167   1.082       .  S
S1162      C1163   1.727       .  A
C1163      C1164   1.392       .  A
C1164      H1168   1.082       .  S
C1169      C1174   1.387       .  A
C1169      C1170   1.403       .  A
C1169      S1175   1.707       .  A
C1170      C1171   1.403   1_655  A
C1170      H1181   1.083       .  S
C1171      C1180   1.374       .  A
C1171      C1172   1.387       .  A
C1172      C1173   1.404   1_455  A
C1172      S1178   1.708       .  A
C1173      C1174   1.404       .  A
C1173      H1182   1.083       .  S
C1174      C1177   1.374       .  A
S1175      C1176   1.723       .  A
C1176      C1177   1.387       .  A
C1177      H1183   1.083       .  S
S1178      C1179   1.724       .  A
C1179      C1180   1.386       .  A
C1180      H1184   1.083       .  S
C1185      C1190   1.386       .  A
C1185      C1186   1.404       .  A
C1185      S1191   1.711       .  A
C1186      C1187   1.405       .  A
C1186      H1197   1.083       .  S
C1187      C1196   1.374       .  A
C1187      C1188   1.387       .  A
C1188      C1189   1.401       .  A
C1188      S1194   1.706       .  A
C1189      C1190   1.402       .  A
C1189      H1198   1.083       .  S
C1190      C1193   1.370       .  A
S1191      C1192   1.725       .  A
C1192      C1193   1.388       .  A
C1193      H1199   1.082       .  S
S1194      C1195   1.723       .  A
C1195      C1196   1.389       .  A
C1196      H1200   1.083       .  S
C1201      C1206   1.387       .  A
C1201      C1202   1.400       .  A
C1201      S1207   1.701   1_554  A
C1202      C1203   1.400       .  A
C1202      H1213   1.083       .  S
C1203      C1212   1.371       .  A
C1203      C1204   1.386       .  A
C1204      C1205   1.411       .  A
C1204      S1210   1.719       .  A
C1205      C1206   1.411       .  A
C1205      H1214   1.083       .  S
C1206      C1209   1.382       .  A
S1207      C1208   1.724       .  A
C1208      C1209   1.393   1_556  A
C1209      H1215   1.083       .  S
S1210      C1211   1.727       .  A
C1211      C1212   1.385       .  A
C1212      H1216   1.083       .  S
C1217      C1222   1.386       .  A
C1217      C1218   1.405       .  A
C1217      S1223   1.711       .  A
C1218      C1219   1.405       .  A
C1218      H1229   1.083       .  S
C1219      C1228   1.374       .  A
C1219      C1220   1.386       .  A
C1220      C1221   1.404       .  A
C1220      S1226   1.709       .  A
C1221      C1222   1.405       .  A
C1221      H1230   1.083       .  S
C1222      C1225   1.374       .  A
S1223      C1224   1.726       .  A
C1224      C1225   1.390       .  A
C1225      H1231   1.082       .  S
S1226      C1227   1.725       .  A
C1227      C1228   1.390       .  A
C1228      H1232   1.083       .  S
C1233      C1238   1.387       .  A
C1233      C1234   1.400       .  A
C1233      S1239   1.706       .  A
C1234      C1235   1.401       .  A
C1234      H1245   1.083       .  S
C1235      C1244   1.369       .  A
C1235      C1236   1.387       .  A
C1236      C1237   1.403       .  A
C1236      S1242   1.710       .  A
C1237      C1238   1.404       .  A
C1237      H1246   1.083       .  S
C1238      C1241   1.372       .  A
S1239      C1240   1.722       .  A
C1240      C1241   1.387       .  A
C1241      H1247   1.083       .  S
S1242      C1243   1.721       .  A
C1243      C1244   1.384       .  A
C1244      H1248   1.083       .  S
C1249      C1254   1.387       .  A
C1249      C1250   1.399       .  A
C1249      S1255   1.703       .  A
C1250      C1251   1.400       .  A
C1250      H1261   1.083       .  S
C1251      C1260   1.368       .  A
C1251      C1252   1.386       .  A
C1252      C1253   1.404       .  A
C1252      S1258   1.709       .  A
C1253      C1254   1.405       .  A
C1253      H1262   1.083       .  S
C1254      C1257   1.373       .  A
S1255      C1256   1.722       .  A
C1256      C1257   1.389       .  A
C1257      H1263   1.082       .  S
S1258      C1259   1.726       .  A
C1259      C1260   1.386       .  A
C1260      H1264   1.082       .  S
C1265      C1270   1.387       .  A
C1265      C1266   1.403       .  A
C1265      S1271   1.707       .  A
C1266      C1267   1.403   1_655  A
C1266      H1277   1.083       .  S
C1267      C1276   1.373       .  A
C1267      C1268   1.387       .  A
C1268      C1269   1.401   1_455  A
C1268      S1274   1.704       .  A
C1269      C1270   1.401       .  A
C1269      H1278   1.083       .  S
C1270      C1273   1.372       .  A
S1271      C1272   1.723       .  A
C1272      C1273   1.384       .  A
C1273      H1279   1.083       .  S
S1274      C1275   1.722       .  A
C1275      C1276   1.386       .  A
C1276      H1280   1.083       .  S
C1281      C1286   1.386       .  A
C1281      C1282   1.399       .  A
C1281      S1287   1.702       .  A
C1282      C1283   1.400       .  A
C1282      H1293   1.083       .  S
C1283      C1292   1.370       .  A
C1283      C1284   1.386       .  A
C1284      C1285   1.409       .  A
C1284      S1290   1.715       .  A
C1285      C1286   1.409       .  A
C1285      H1294   1.083       .  S
C1286      C1289   1.380       .  A
S1287      C1288   1.723       .  A
C1288      C1289   1.393       .  A
C1289      H1295   1.082       .  S
S1290      C1291   1.729       .  A
C1291      C1292   1.387       .  A
C1292      H1296   1.082       .  S
C1297      C1302   1.388       .  A
C1297      C1298   1.401       .  A
C1297      S1303   1.708       .  A
C1298      C1299   1.402       .  A
C1298      H1309   1.083       .  S
C1299      C1308   1.370       .  A
C1299      C1300   1.386       .  A
C1300      C1301   1.404       .  A
C1300      S1306   1.711       .  A
C1301      C1302   1.405       .  A
C1301      H1310   1.083       .  S
C1302      C1305   1.374       .  A
S1303      C1304   1.719       .  A
C1304      C1305   1.386       .  A
C1305      H1311   1.083       .  S
S1306      C1307   1.725       .  A
C1307      C1308   1.388       .  A
C1308      H1312   1.083       .  S
C1313      C1318   1.386       .  A
C1313      C1314   1.404       .  A
C1313      S1319   1.711       .  A
C1314      C1315   1.405       .  A
C1314      H1325   1.073       .  S
C1315      C1324   1.371   1_554  A
C1315      C1316   1.386       .  A
C1316      C1317   1.403       .  A
C1316      S1322   1.709   1_554  A
C1317      C1318   1.404       .  A
C1317      H1326   1.072       .  S
C1318      C1321   1.370       .  A
S1319      C1320   1.722       .  A
C1320      C1321   1.386       .  A
C1321      H1327   1.076       .  S
S1322      C1323   1.722       .  A
C1323      C1324   1.388       .  A
C1324      H1328   1.077       .  S
C1329      C1334   1.387       .  A
C1329      C1330   1.400       .  A
C1329      S1335   1.702       .  A
C1330      C1331   1.400       .  A
C1330      H1341   1.083       .  S
C1331      C1340   1.370       .  A
C1331      C1332   1.386       .  A
C1332      C1333   1.404       .  A
C1332      S1338   1.708       .  A
C1333      C1334   1.404       .  A
C1333      H1342   1.083       .  S
C1334      C1337   1.375       .  A
S1335      C1336   1.723       .  A
C1336      C1337   1.388       .  A
C1337      H1343   1.083       .  S
S1338      C1339   1.726       .  A
C1339      C1340   1.387       .  A
C1340      H1344   1.082       .  S
C1345      C1350   1.386       .  A
C1345      C1346   1.406       .  A
C1345      S1351   1.715       .  A
C1346      C1347   1.407       .  A
C1346      H1357   1.083       .  S
C1347      C1356   1.375       .  A
C1347      C1348   1.387       .  A
C1348      C1349   1.399       .  A
C1348      S1354   1.704       .  A
C1349      C1350   1.400       .  A
C1349      H1358   1.083       .  S
C1350      C1353   1.368       .  A
S1351      C1352   1.725       .  A
C1352      C1353   1.386       .  A
C1353      H1359   1.083       .  S
S1354      C1355   1.723       .  A
C1355      C1356   1.390       .  A
C1356      H1360   1.082       .  S
C1361      C1366   1.385       .  A
C1361      C1362   1.408       .  A
C1361      S1367   1.715       .  A
C1362      C1363   1.409       .  A
C1362      H1373   1.083       .  S
C1363      C1372   1.379       .  A
C1363      C1364   1.386       .  A
C1364      C1365   1.401       .  A
C1364      S1370   1.706       .  A
C1365      C1366   1.402       .  A
C1365      H1374   1.083       .  S
C1366      C1369   1.371       .  A
S1367      C1368   1.728       .  A
C1368      C1369   1.388       .  A
C1369      H1375   1.082       .  S
S1370      C1371   1.724       .  A
C1371      C1372   1.393       .  A
C1372      H1376   1.082       .  S
C1377      C1382   1.387       .  A
C1377      C1378   1.398       .  A
C1377      S1383   1.702       .  A
C1378      C1379   1.399       .  A
C1378      H1389   1.083       .  S
C1379      C1388   1.367       .  A
C1379      C1380   1.386       .  A
C1380      C1381   1.406       .  A
C1380      S1386   1.713       .  A
C1381      C1382   1.407       .  A
C1381      H1390   1.083       .  S
C1382      C1385   1.375       .  A
S1383      C1384   1.723       .  A
C1384      C1385   1.390       .  A
C1385      H1391   1.083       .  S
S1386      C1387   1.725       .  A
C1387      C1388   1.385       .  A
C1388      H1392   1.083       .  S
C1393      C1398   1.385       .  A
C1393      C1394   1.411       .  A
C1393      S1399   1.719       .  A
C1394      C1395   1.411   1_655  A
C1394      H1405   1.082       .  S
C1395      C1404   1.380       .  A
C1395      C1396   1.387       .  A
C1396      C1397   1.393   1_455  A
C1396      S1402   1.696       .  A
C1397      C1398   1.395       .  A
C1397      H1406   1.083       .  S
C1398      C1401   1.361       .  A
S1399      C1400   1.729       .  A
C1400      C1401   1.385       .  A
C1401      H1407   1.082       .  S
S1402      C1403   1.721       .  A
C1403      C1404   1.392       .  A
C1404      H1408   1.082       .  S
C1409      C1414   1.387       .  A
C1409      C1410   1.398       .  A
C1409      S1415   1.702       .  A
C1410      C1411   1.400       .  A
C1410      H1421   1.083       .  S
C1411      C1420   1.367       .  A
C1411      C1412   1.386       .  A
C1412      C1413   1.406       .  A
C1412      S1418   1.713       .  A
C1413      C1414   1.407       .  A
C1413      H1422   1.083       .  S
C1414      C1417   1.375       .  A
S1415      C1416   1.723       .  A
C1416      C1417   1.390       .  A
C1417      H1423   1.082       .  S
S1418      C1419   1.727       .  A
C1419      C1420   1.387       .  A
C1420      H1424   1.082       .  S
C1425      C1430   1.387       .  A
C1425      C1426   1.402       .  A
C1425      S1431   1.710   1_545  A
C1426      C1427   1.404       .  A
C1426      H1437   1.083       .  S
C1427      C1436   1.371       .  A
C1427      C1428   1.387       .  A
C1428      C1429   1.402       .  A
C1428      S1434   1.711       .  A
C1429      C1430   1.404       .  A
C1429      H1438   1.083       .  S
C1430      C1433   1.371   1_545  A
S1431      C1432   1.723       .  A
C1432      C1433   1.387       .  A
C1433      H1439   1.083       .  S
S1434      C1435   1.721       .  A
C1435      C1436   1.386       .  A
C1436      H1440   1.083       .  S
C1441      C1446   1.386       .  A
C1441      C1442   1.402       .  A
C1441      S1447   1.706       .  A
C1442      C1443   1.403       .  A
C1442      H1453   1.083       .  S
C1443      C1452   1.373       .  A
C1443      C1444   1.386       .  A
C1444      C1445   1.406       .  A
C1444      S1450   1.711       .  A
C1445      C1446   1.406       .  A
C1445      H1454   1.083       .  S
C1446      C1449   1.376       .  A
S1447      C1448   1.725       .  A
C1448      C1449   1.390       .  A
C1449      H1455   1.082       .  S
S1450      C1451   1.727       .  A
C1451      C1452   1.389       .  A
C1452      H1456   1.082       .  S
C1457      C1462   1.385       .  A
C1457      C1458   1.408       .  A
C1457      S1463   1.716       .  A
C1458      C1459   1.409       .  A
C1458      H1469   1.082       .  S
C1459      C1468   1.379       .  A
C1459      C1460   1.387       .  A
C1460      C1461   1.398       .  A
C1460      S1466   1.703       .  A
C1461      C1462   1.399       .  A
C1461      H1470   1.083       .  S
C1462      C1465   1.367       .  A
S1463      C1464   1.727       .  A
C1464      C1465   1.388       .  A
C1465      H1471   1.082       .  S
S1466      C1467   1.721       .  A
C1467      C1468   1.390       .  A
C1468      H1472   1.082       .  S
C1473      C1478   1.387       .  A
C1473      C1474   1.399       .  A
C1473      S1479   1.702       .  A
C1474      C1475   1.399       .  A
C1474      H1485   1.083       .  S
C1475      C1484   1.368       .  A
C1475      C1476   1.386       .  A
C1476      C1477   1.407       .  A
C1476      S1482   1.714       .  A
C1477      C1478   1.408       .  A
C1477      H1486   1.083       .  S
C1478      C1481   1.377       .  A
S1479      C1480   1.723       .  A
C1480      C1481   1.391       .  A
C1481      H1487   1.083       .  S
S1482      C1483   1.726       .  A
C1483      C1484   1.385       .  A
C1484      H1488   1.083       .  S
C1489      C1494   1.386       .  A
C1489      C1490   1.400       .  A
C1489      S1495   1.702       .  A
C1490      C1491   1.400       .  A
C1490      H1501   1.083       .  S
C1491      C1500   1.371       .  A
C1491      C1492   1.385       .  A
C1492      C1493   1.409       .  A
C1492      S1498   1.715       .  A
C1493      C1494   1.409       .  A
C1493      H1502   1.083       .  S
C1494      C1497   1.380       .  A
S1495      C1496   1.724       .  A
C1496      C1497   1.392       .  A
C1497      H1503   1.082       .  S
S1498      C1499   1.728       .  A
C1499      C1500   1.388       .  A
C1500      H1504   1.082       .  S
C1505      C1510   1.387       .  A
C1505      C1506   1.400       .  A
C1505      S1511   1.704       .  A
C1506      C1507   1.401       .  A
C1506      H1517   1.083       .  S
C1507      C1516   1.369       .  A
C1507      C1508   1.387       .  A
C1508      C1509   1.406       .  A
C1508      S1514   1.714       .  A
C1509      C1510   1.407       .  A
C1509      H1518   1.083       .  S
C1510      C1513   1.376       .  A
S1511      C1512   1.723       .  A
C1512      C1513   1.390       .  A
C1513      H1519   1.083       .  S
S1514      C1515   1.724       .  A
C1515      C1516   1.385       .  A
C1516      H1520   1.083       .  S
C1521      C1526   1.387       .  A
C1521      C1522   1.393       .  A
C1521      S1527   1.695       .  A
C1522      C1523   1.394       .  A
C1522      H1533   1.083       .  S
C1523      C1532   1.361   1_655  A
C1523      C1524   1.385       .  A
C1524      C1525   1.411       .  A
C1524      S1530   1.721   1_655  A
C1525      C1526   1.412       .  A
C1525      H1534   1.082       .  S
C1526      C1529   1.381       .  A
S1527      C1528   1.719       .  A
C1528      C1529   1.392       .  A
C1529      H1535   1.083       .  S
S1530      C1531   1.728       .  A
C1531      C1532   1.383       .  A
C1532      H1536   1.083       .  S
C1537      C1542   1.387       .  A
C1537      C1538   1.400       .  A
C1537      S1543   1.704       .  A
C1538      C1539   1.401       .  A
C1538      H1549   1.083       .  S
C1539      C1548   1.370       .  A
C1539      C1540   1.386       .  A
C1540      C1541   1.406       .  A
C1540      S1546   1.711       .  A
C1541      C1542   1.406       .  A
C1541      H1550   1.083       .  S
C1542      C1545   1.376       .  A
S1543      C1544   1.723       .  A
C1544      C1545   1.390       .  A
C1545      H1551   1.083       .  S
S1546      C1547   1.727       .  A
C1547      C1548   1.386       .  A
C1548      H1552   1.083       .  S
C1553      C1558   1.387       .  A
C1553      C1554   1.397       .  A
C1553      S1559   1.701       .  A
C1554      C1555   1.398       .  A
C1554      H1565   1.083       .  S
C1555      C1564   1.365       .  A
C1555      C1556   1.385       .  A
C1556      C1557   1.410       .  A
C1556      S1562   1.719       .  A
C1557      C1558   1.411       .  A
C1557      H1566   1.083       .  S
C1558      C1561   1.380       .  A
S1559      C1560   1.720       .  A
C1560      C1561   1.391       .  A
C1561      H1567   1.083       .  S
S1562      C1563   1.729       .  A
C1563      C1564   1.388       .  A
C1564      H1568   1.082       .  S
C1569      C1574   1.387       .  A
C1569      C1570   1.403   1_545  A
C1569      S1575   1.709       .  A
C1570      C1571   1.404       .  A
C1570      H1581   1.083       .  S
C1571      C1580   1.372       .  A
C1571      C1572   1.387       .  A
C1572      C1573   1.402   1_565  A
C1572      S1578   1.708       .  A
C1573      C1574   1.403       .  A
C1573      H1582   1.083       .  S
C1574      C1577   1.371       .  A
S1575      C1576   1.723       .  A
C1576      C1577   1.386       .  A
C1577      H1583   1.083       .  S
S1578      C1579   1.722       .  A
C1579      C1580   1.387       .  A
C1580      H1584   1.083       .  S
C1585      C1590   1.386       .  A
C1585      C1586   1.404       .  A
C1585      S1591   1.709       .  A
C1586      C1587   1.405       .  A
C1586      H1597   1.083       .  S
C1587      C1596   1.376       .  A
C1587      C1588   1.387       .  A
C1588      C1589   1.402       .  A
C1588      S1594   1.704       .  A
C1589      C1590   1.402       .  A
C1589      H1598   1.083       .  S
C1590      C1593   1.372       .  A
S1591      C1592   1.725       .  A
C1592      C1593   1.387       .  A
C1593      H1599   1.083       .  S
S1594      C1595   1.726       .  A
C1595      C1596   1.389       .  A
C1596      H1600   1.082       .  S
C1601      C1606   1.387       .  A
C1601      C1602   1.400       .  A
C1601      S1607   1.704       .  A
C1602      C1603   1.400       .  A
C1602      H1613   1.083       .  S
C1603      C1612   1.369       .  A
C1603      C1604   1.388       .  A
C1604      C1605   1.402       .  A
C1604      S1610   1.707       .  A
C1605      C1606   1.403       .  A
C1605      H1614   1.083       .  S
C1606      C1609   1.371       .  A
S1607      C1608   1.721       .  A
C1608      C1609   1.386       .  A
C1609      H1615   1.083       .  S
S1610      C1611   1.721       .  A
C1611      C1612   1.383       .  A
C1612      H1616   1.083       .  S
C1617      C1622   1.385       .  A
C1617      C1618   1.406       .  A
C1617      S1623   1.714       .  A
C1618      C1619   1.407       .  A
C1618      H1629   1.083       .  S
C1619      C1628   1.377       .  A
C1619      C1620   1.386       .  A
C1620      C1621   1.401       .  A
C1620      S1626   1.705       .  A
C1621      C1622   1.402       .  A
C1621      H1630   1.083       .  S
C1622      C1625   1.370       .  A
S1623      C1624   1.726       .  A
C1624      C1625   1.389       .  A
C1625      H1631   1.082       .  S
S1626      C1627   1.725       .  A
C1627      C1628   1.390       .  A
C1628      H1632   1.082       .  S
C1633      C1638   1.387       .  A
C1633      C1634   1.403       .  A
C1633      S1639   1.708       .  A
C1634      C1635   1.404       .  A
C1634      H1645   1.083       .  S
C1635      C1644   1.373       .  A
C1635      C1636   1.387       .  A
C1636      C1637   1.400       .  A
C1636      S1642   1.704       .  A
C1637      C1638   1.401       .  A
C1637      H1646   1.083       .  S
C1638      C1641   1.370       .  A
S1639      C1640   1.724       .  A
C1640      C1641   1.385       .  A
C1641      H1647   1.083       .  S
S1642      C1643   1.721       .  A
C1643      C1644   1.386       .  A
C1644      H1648   1.083       .  S
C1649      C1654   1.387       .  A
C1649      C1650   1.399       .  A
C1649      S1655   1.706       .  A
C1650      C1651   1.401       .  A
C1650      H1661   1.083       .  S
C1651      C1660   1.368       .  A
C1651      C1652   1.387       .  A
C1652      C1653   1.403       .  A
C1652      S1658   1.710       .  A
C1653      C1654   1.404       .  A
C1653      H1662   1.083       .  S
C1654      C1657   1.372       .  A
S1655      C1656   1.720       .  A
C1656      C1657   1.386       .  A
C1657      H1663   1.083       .  S
S1658      C1659   1.724       .  A
C1659      C1660   1.385       .  A
C1660      H1664   1.083       .  S
C1665      C1670   1.387       .  A
C1665      C1666   1.402       .  A
C1665      S1671   1.710       .  A
C1666      C1667   1.404       .  A
C1666      H1677   1.083       .  S
C1667      C1676   1.371       .  A
C1667      C1668   1.387       .  A
C1668      C1669   1.402       .  A
C1668      S1674   1.711       .  A
C1669      C1670   1.404       .  A
C1669      H1678   1.083       .  S
C1670      C1673   1.370       .  A
S1671      C1672   1.723       .  A
C1672      C1673   1.387       .  A
C1673      H1679   1.083       .  S
S1674      C1675   1.722       .  A
C1675      C1676   1.386       .  A
C1676      H1680   1.083       .  S
C1681      C1686   1.386       .  A
C1681      C1682   1.406       .  A
C1681      S1687   1.711       .  A
C1682      C1683   1.406       .  A
C1682      H1693   1.083       .  S
C1683      C1692   1.376       .  A
C1683      C1684   1.387       .  A
C1684      C1685   1.400       .  A
C1684      S1690   1.703       .  A
C1685      C1686   1.400       .  A
C1685      H1694   1.083       .  S
C1686      C1689   1.370       .  A
S1687      C1688   1.727       .  A
C1688      C1689   1.387       .  A
C1689      H1695   1.082       .  S
S1690      C1691   1.723       .  A
C1691      C1692   1.390       .  A
C1692      H1696   1.082       .  S
C1697      C1702   1.386       .  A
C1697      C1698   1.409       .  A
C1697      S1703   1.716       .  A
C1698      C1699   1.409       .  A
C1698      H1709   1.082       .  S
C1699      C1708   1.379       .  A
C1699      C1700   1.387       .  A
C1700      C1701   1.397       .  A
C1700      S1706   1.700       .  A
C1701      C1702   1.398       .  A
C1701      H1710   1.083       .  S
C1702      C1705   1.367       .  A
S1703      C1704   1.728       .  A
C1704      C1705   1.385       .  A
C1705      H1711   1.083       .  S
S1706      C1707   1.722       .  A
C1707      C1708   1.391       .  A
C1708      H1712   1.082       .  S
C1713      C1718   1.387       .  A
C1713      C1714   1.402       .  A
C1713      S1719   1.710       .  A
C1714      C1715   1.403       .  A
C1714      H1725   1.083       .  S
C1715      C1724   1.370       .  A
C1715      C1716   1.387       .  A
C1716      C1717   1.402       .  A
C1716      S1722   1.709       .  A
C1717      C1718   1.403       .  A
C1717      H1726   1.083       .  S
C1718      C1721   1.370       .  A
S1719      C1720   1.722       .  A
C1720      C1721   1.386       .  A
C1721      H1727   1.083       .  S
S1722      C1723   1.722       .  A
C1723      C1724   1.387       .  A
C1724      H1728   1.083       .  S
C1729      C1734   1.386       .  A
C1729      C1730   1.407       .  A
C1729      S1735   1.711       .  A
C1730      C1731   1.407       .  A
C1730      H1741   1.083       .  S
C1731      C1740   1.379       .  A
C1731      C1732   1.386       .  A
C1732      C1733   1.403       .  A
C1732      S1738   1.706       .  A
C1733      C1734   1.403       .  A
C1733      H1742   1.083       .  S
C1734      C1737   1.374       .  A
S1735      C1736   1.728       .  A
C1736      C1737   1.389       .  A
C1737      H1743   1.083       .  S
S1738      C1739   1.726       .  A
C1739      C1740   1.391       .  A
C1740      H1744   1.083       .  S
C1745      C1750   1.386       .  A
C1745      C1746   1.407       .  A
C1745      S1751   1.713       .  A
C1746      C1747   1.407       .  A
C1746      H1757   1.083       .  S
C1747      C1756   1.377       .  A
C1747      C1748   1.387       .  A
C1748      C1749   1.399       .  A
C1748      S1754   1.702       .  A
C1749      C1750   1.400       .  A
C1749      H1758   1.083       .  S
C1750      C1753   1.368       .  A
S1751      C1752   1.726       .  A
C1752      C1753   1.386       .  A
C1753      H1759   1.083       .  S
S1754      C1755   1.723       .  A
C1755      C1756   1.390       .  A
C1756      H1760   1.083       .  S
C1761      C1766   1.387       .  A
C1761      C1762   1.397       .  A
C1761      S1767   1.699       .  A
C1762      C1763   1.397       .  A
C1762      H1773   1.083       .  S
C1763      C1772   1.366       .  A
C1763      C1764   1.386       .  A
C1764      C1765   1.411       .  A
C1764      S1770   1.720       .  A
C1765      C1766   1.411       .  A
C1765      H1774   1.083       .  S
C1766      C1769   1.381       .  A
S1767      C1768   1.721       .  A
C1768      C1769   1.392       .  A
C1769      H1775   1.083       .  S
S1770      C1771   1.727       .  A
C1771      C1772   1.384       .  A
C1772      H1776   1.083       .  S
C1777      C1782   1.386       .  A
C1777      C1778   1.406       .  A
C1777      S1783   1.711       .  A
C1778      C1779   1.406       .  A
C1778      H1789   1.083       .  S
C1779      C1788   1.376       .  A
C1779      C1780   1.386       .  A
C1780      C1781   1.403       .  A
C1780      S1786   1.706       .  A
C1781      C1782   1.403       .  A
C1781      H1790   1.083       .  S
C1782      C1785   1.373       .  A
S1783      C1784   1.726       .  A
C1784      C1785   1.389       .  A
C1785      H1791   1.082       .  S
S1786      C1787   1.725       .  A
C1787      C1788   1.390       .  A
C1788      H1792   1.082       .  S
C1793      C1798   1.386       .  A
C1793      C1794   1.407       .  A
C1793      S1799   1.715       .  A
C1794      C1795   1.408       .  A
C1794      H1805   1.083       .  S
C1795      C1804   1.377       .  A
C1795      C1796   1.387       .  A
C1796      C1797   1.398       .  A
C1796      S1802   1.702       .  A
C1797      C1798   1.399       .  A
C1797      H1806   1.083       .  S
C1798      C1801   1.367       .  A
S1799      C1800   1.726       .  A
C1800      C1801   1.386       .  A
C1801      H1807   1.083       .  S
S1802      C1803   1.723       .  A
C1803      C1804   1.389       .  A
C1804      H1808   1.083       .  S
C1809      C1814   1.387       .  A
C1809      C1810   1.401       .  A
C1809      S1815   1.708       .  A
C1810      C1811   1.402       .  A
C1810      H1821   1.083       .  S
C1811      C1820   1.369       .  A
C1811      C1812   1.387       .  A
C1812      C1813   1.402       .  A
C1812      S1818   1.710       .  A
C1813      C1814   1.404       .  A
C1813      H1822   1.083       .  S
C1814      C1817   1.371       .  A
S1815      C1816   1.722       .  A
C1816      C1817   1.387       .  A
C1817      H1823   1.083       .  S
S1818      C1819   1.723       .  A
C1819      C1820   1.386       .  A
C1820      H1824   1.083       .  S
C1825      C1830   1.387       .  A
C1825      C1826   1.398       .  A
C1825      S1831   1.698       .  A
C1826      C1827   1.398       .  A
C1826      H1837   1.083       .  S
C1827      C1836   1.368       .  A
C1827      C1828   1.386       .  A
C1828      C1829   1.410       .  A
C1828      S1834   1.718       .  A
C1829      C1830   1.410       .  A
C1829      H1838   1.083       .  S
C1830      C1833   1.382       .  A
S1831      C1832   1.724       .  A
C1832      C1833   1.393       .  A
C1833      H1839   1.082       .  S
S1834      C1835   1.727       .  A
C1835      C1836   1.384       .  A
C1836      H1840   1.083       .  S
C1841      C1846   1.385       .  A
C1841      C1842   1.407       .  A
C1841      S1847   1.716       .  A
C1842      C1843   1.408       .  A
C1842      H1853   1.083       .  S
C1843      C1852   1.376       .  A
C1843      C1844   1.386       .  A
C1844      C1845   1.400       .  A
C1844      S1850   1.707       .  A
C1845      C1846   1.402       .  A
C1845      H1854   1.083       .  S
C1846      C1849   1.369       .  A
S1847      C1848   1.727       .  A
C1848      C1849   1.389       .  A
C1849      H1855   1.082       .  S
S1850      C1851   1.723       .  A
C1851      C1852   1.391       .  A
C1852      H1856   1.083       .  S
C1857      C1862   1.385       .  A
C1857      C1858   1.413       .  A
C1857      S1863   1.721       .  A
C1858      C1859   1.413       .  A
C1858      H1869   1.082       .  S
C1859      C1868   1.384       .  A
C1859      C1860   1.386       .  A
C1860      C1861   1.396       .  A
C1860      S1866   1.696       .  A
C1861      C1862   1.396       .  A
C1861      H1870   1.083       .  S
C1862      C1865   1.365       .  A
S1863      C1864   1.730       .  A
C1864      C1865   1.386       .  A
C1865      H1871   1.082       .  S
S1866      C1867   1.723       .  A
C1867      C1868   1.394       .  A
C1868      H1872   1.082       .  S
C1873      C1878   1.387       .  A
C1873      C1874   1.401       .  A
C1873      S1879   1.705       .  A
C1874      C1875   1.401       .  A
C1874      H1885   1.083       .  S
C1875      C1884   1.371       .  A
C1875      C1876   1.387       .  A
C1876      C1877   1.403       .  A
C1876      S1882   1.708       .  A
C1877      C1878   1.403       .  A
C1877      H1886   1.083       .  S
C1878      C1881   1.373       .  A
S1879      C1880   1.723       .  A
C1880      C1881   1.386       .  A
C1881      H1887   1.083       .  S
S1882      C1883   1.723       .  A
C1883      C1884   1.385       .  A
C1884      H1888   1.083       .  S
C1889      C1894   1.387       .  A
C1889      C1890   1.403       .  A
C1889      S1895   1.711       .  A
C1890      C1891   1.404       .  A
C1890      H1901   1.083       .  S
C1891      C1900   1.370       .  A
C1891      C1892   1.387       .  A
C1892      C1893   1.400       .  A
C1892      S1898   1.708       .  A
C1893      C1894   1.402       .  A
C1893      H1902   1.083       .  S
C1894      C1897   1.368       .  A
S1895      C1896   1.722       .  A
C1896      C1897   1.385       .  A
C1897      H1903   1.083       .  S
S1898      C1899   1.722       .  A
C1899      C1900   1.387       .  A
C1900      H1904   1.083       .  S
C1905      C1910   1.386       .  A
C1905      C1906   1.399       .  A
C1905      S1911   1.704       .  A
C1906      C1907   1.400       .  A
C1906      H1917   1.083       .  S
C1907      C1916   1.368       .  A
C1907      C1908   1.385       .  A
C1908      C1909   1.407       .  A
C1908      S1914   1.715       .  A
C1909      C1910   1.408       .  A
C1909      H1918   1.083       .  S
C1910      C1913   1.376       .  A
S1911      C1912   1.723       .  A
C1912      C1913   1.391       .  A
C1913      H1919   1.082       .  S
S1914      C1915   1.727       .  A
C1915      C1916   1.388       .  A
C1916      H1920   1.082       .  S
C1921      C1926   1.387       .  A
C1921      C1922   1.402       .  A
C1921      S1927   1.707       .  A
C1922      C1923   1.402       .  A
C1922      H1933   1.083       .  S
C1923      C1932   1.371       .  A
C1923      C1924   1.387       .  A
C1924      C1925   1.401       .  A
C1924      S1930   1.707       .  A
C1925      C1926   1.402       .  A
C1925      H1934   1.083       .  S
C1926      C1929   1.371       .  A
S1927      C1928   1.722       .  A
C1928      C1929   1.386       .  A
C1929      H1935   1.083       .  S
S1930      C1931   1.721       .  A
C1931      C1932   1.385       .  A
C1932      H1936   1.083       .  S
C1937      C1942   1.387       .  A
C1937      C1938   1.402       .  A
C1937      S1943   1.707       .  A
C1938      C1939   1.403       .  A
C1938      H1949   1.083       .  S
C1939      C1948   1.371       .  A
C1939      C1940   1.387       .  A
C1940      C1941   1.403       .  A
C1940      S1946   1.709       .  A
C1941      C1942   1.403       .  A
C1941      H1950   1.083       .  S
C1942      C1945   1.373       .  A
S1943      C1944   1.724       .  A
C1944      C1945   1.387       .  A
C1945      H1951   1.083       .  S
S1946      C1947   1.722       .  A
C1947      C1948   1.385       .  A
C1948      H1952   1.083       .  S
C1953      C1958   1.386       .  A
C1953      C1954   1.407       .  A
C1953      S1959   1.711       .  A
C1954      C1955   1.407       .  A
C1954      H1965   1.083       .  S
C1955      C1964   1.378       .  A
C1955      C1956   1.386       .  A
C1956      C1957   1.402       .  A
C1956      S1962   1.705       .  A
C1957      C1958   1.402       .  A
C1957      H1966   1.083       .  S
C1958      C1961   1.373       .  A
S1959      C1960   1.728       .  A
C1960      C1961   1.388       .  A
C1961      H1967   1.082       .  S
S1962      C1963   1.725       .  A
C1963      C1964   1.391       .  A
C1964      H1968   1.082       .  S
C1969      C1974   1.386       .  A
C1969      C1970   1.406       .  A
C1969      S1975   1.714       .  A
C1970      C1971   1.407       .  A
C1970      H1981   1.083       .  S
C1971      C1980   1.375       .  A
C1971      C1972   1.387       .  A
C1972      C1973   1.397       .  A
C1972      S1978   1.702       .  A
C1973      C1974   1.399       .  A
C1973      H1982   1.083       .  S
C1974      C1977   1.366       .  A
S1975      C1976   1.726       .  A
C1976      C1977   1.386       .  A
C1977      H1983   1.083       .  S
S1978      C1979   1.721       .  A
C1979      C1980   1.388       .  A
C1980      H1984   1.083       .  S
C1985      C1990   1.387       .  A
C1985      C1986   1.404       .  A
C1985      S1991   1.709       .  A
C1986      C1987   1.404       .  A
C1986      H1997   1.083       .  S
C1987      C1996   1.375       .  A
C1987      C1988   1.387       .  A
C1988      C1989   1.404       .  A
C1988      S1994   1.709       .  A
C1989      C1990   1.405       .  A
C1989      H1998   1.083       .  S
C1990      C1993   1.375       .  A
S1991      C1992   1.723       .  A
C1992      C1993   1.388       .  A
C1993      H1999   1.083       .  S
S1994      C1995   1.725       .  A
C1995      C1996   1.387       .  A
C1996      H2000   1.083       .  S
C2001      C2006   1.387       .  A
C2001      C2002   1.404       .  A
C2001      S2007   1.711       .  A
C2002      C2003   1.405       .  A
C2002      H2013   1.083       .  S
C2003      C2012   1.373       .  A
C2003      C2004   1.387       .  A
C2004      C2005   1.403       .  A
C2004      S2010   1.711       .  A
C2005      C2006   1.404       .  A
C2005      H2014   1.083       .  S
C2006      C2009   1.373   1_554  A
S2007      C2008   1.723   1_554  A
C2008      C2009   1.387       .  A
C2009      H2015   1.083       .  S
S2010      C2011   1.723       .  A
C2011      C2012   1.388       .  A
C2012      H2016   1.083       .  S
C2017      C2022   1.386       .  A
C2017      C2018   1.408       .  A
C2017      S2023   1.714       .  A
C2018      C2019   1.408       .  A
C2018      H2029   1.083       .  S
C2019      C2028   1.378       .  A
C2019      C2020   1.386       .  A
C2020      C2021   1.400       .  A
C2020      S2026   1.704       .  A
C2021      C2022   1.401       .  A
C2021      H2030   1.083       .  S
C2022      C2025   1.371       .  A
S2023      C2024   1.729       .  A
C2024      C2025   1.387       .  A
C2025      H2031   1.082       .  S
S2026      C2027   1.723       .  A
C2027      C2028   1.392       .  A
C2028      H2032   1.083       .  S
C2033      C2038   1.387       .  A
C2033      C2034   1.400       .  A
C2033      S2039   1.704       .  A
C2034      C2035   1.401       .  A
C2034      H2045   1.083       .  S
C2035      C2044   1.369       .  A
C2035      C2036   1.386       .  A
C2036      C2037   1.405       .  A
C2036      S2042   1.712       .  A
C2037      C2038   1.406       .  A
C2037      H2046   1.083       .  S
C2038      C2041   1.375       .  A
S2039      C2040   1.723       .  A
C2040      C2041   1.389       .  A
C2041      H2047   1.083       .  S
S2042      C2043   1.725       .  A
C2043      C2044   1.386       .  A
C2044      H2048   1.083       .  S
C2049      C2054   1.387       .  A
C2049      C2050   1.403       .  A
C2049      S2055   1.707       .  A
C2050      C2051   1.403       .  A
C2050      H2061   1.083       .  S
C2051      C2060   1.373       .  A
C2051      C2052   1.387       .  A
C2052      C2053   1.403       .  A
C2052      S2058   1.708       .  A
C2053      C2054   1.403       .  A
C2053      H2062   1.083       .  S
C2054      C2057   1.373       .  A
S2055      C2056   1.725       .  A
C2056      C2057   1.386       .  A
C2057      H2063   1.083       .  S
S2058      C2059   1.722       .  A
C2059      C2060   1.386       .  A
C2060      H2064   1.083       .  S
C2065      C2070   1.387       .  A
C2065      C2066   1.400       .  A
C2065      S2071   1.702       .  A
C2066      C2067   1.400       .  A
C2066      H2077   1.083       .  S
C2067      C2076   1.369       .  A
C2067      C2068   1.386       .  A
C2068      C2069   1.406       .  A
C2068      S2074   1.713       .  A
C2069      C2070   1.407       .  A
C2069      H2078   1.083       .  S
C2070      C2073   1.377       .  A
S2071      C2072   1.724       .  A
C2072      C2073   1.390       .  A
C2073      H2079   1.082       .  S
S2074      C2075   1.725       .  A
C2075      C2076   1.386       .  A
C2076      H2080   1.083       .  S
C2081      C2086   1.386       .  A
C2081      C2082   1.401       .  A
C2081      S2087   1.708       .  A
C2082      C2083   1.403       .  A
C2082      H2093   1.083       .  S
C2083      C2092   1.370       .  A
C2083      C2084   1.386       .  A
C2084      C2085   1.405       .  A
C2084      S2090   1.713       .  A
C2085      C2086   1.406       .  A
C2085      H2094   1.083       .  S
C2086      C2089   1.373       .  A
S2087      C2088   1.723       .  A
C2088      C2089   1.389       .  A
C2089      H2095   1.083       .  S
S2090      C2091   1.726       .  A
C2091      C2092   1.388       .  A
C2092      H2096   1.082       .  S
C2097      C2102   1.387       .  A
C2097      C2098   1.401       .  A
C2097      S2103   1.706       .  A
C2098      C2099   1.401       .  A
C2098      H2109   1.083       .  S
C2099      C2108   1.370       .  A
C2099      C2100   1.387       .  A
C2100      C2101   1.405       .  A
C2100      S2106   1.712       .  A
C2101      C2102   1.406       .  A
C2101      H2110   1.083       .  S
C2102      C2105   1.375       .  A
S2103      C2104   1.721       .  A
C2104      C2105   1.387       .  A
C2105      H2111   1.083       .  S
S2106      C2107   1.724       .  A
C2107      C2108   1.386       .  A
C2108      H2112   1.083       .  S
C2113      C2118   1.385   1_545  A
C2113      C2114   1.411       .  A
C2113      S2119   1.720   1_545  A
C2114      C2115   1.411       .  A
C2114      H2125   1.082       .  S
C2115      C2124   1.381       .  A
C2115      C2116   1.387       .  A
C2116      C2117   1.395       .  A
C2116      S2122   1.698       .  A
C2117      C2118   1.397   1_545  A
C2117      H2126   1.083       .  S
C2118      C2121   1.364       .  A
S2119      C2120   1.729       .  A
C2120      C2121   1.386       .  A
C2121      H2127   1.082       .  S
S2122      C2123   1.719       .  A
C2123      C2124   1.392       .  A
C2124      H2128   1.083       .  S
C2129      C2134   1.387       .  A
C2129      C2130   1.403       .  A
C2129      S2135   1.706       .  A
C2130      C2131   1.403       .  A
C2130      H2141   1.083       .  S
C2131      C2140   1.374       .  A
C2131      C2132   1.387       .  A
C2132      C2133   1.405       .  A
C2132      S2138   1.709       .  A
C2133      C2134   1.405       .  A
C2133      H2142   1.083       .  S
C2134      C2137   1.376       .  A
S2135      C2136   1.724       .  A
C2136      C2137   1.388       .  A
C2137      H2143   1.083       .  S
S2138      C2139   1.724       .  A
C2139      C2140   1.386       .  A
C2140      H2144   1.083       .  S
C2145      C2150   1.386       .  A
C2145      C2146   1.407       .  A
C2145      S2151   1.711       .  A
C2146      C2147   1.407       .  A
C2146      H2157   1.083       .  S
C2147      C2156   1.379       .  A
C2147      C2148   1.386       .  A
C2148      C2149   1.404       .  A
C2148      S2154   1.707       .  A
C2149      C2150   1.404       .  A
C2149      H2158   1.083       .  S
C2150      C2153   1.376       .  A
S2151      C2152   1.727       .  A
C2152      C2153   1.390       .  A
C2153      H2159   1.082       .  S
S2154      C2155   1.726       .  A
C2155      C2156   1.391       .  A
C2156      H2160   1.082       .  S
C2161      C2166   1.385       .  A
C2161      C2162   1.409       .  A
C2161      S2167   1.716       .  A
C2162      C2163   1.409       .  A
C2162      H2173   1.083       .  S
C2163      C2172   1.379       .  A
C2163      C2164   1.387       .  A
C2164      C2165   1.398       .  A
C2164      S2170   1.701       .  A
C2165      C2166   1.398       .  A
C2165      H2174   1.083       .  S
C2166      C2169   1.367       .  A
S2167      C2168   1.728       .  A
C2168      C2169   1.386       .  A
C2169      H2175   1.082       .  S
S2170      C2171   1.722       .  A
C2171      C2172   1.392       .  A
C2172      H2176   1.083       .  S
C2177      C2182   1.385       .  A
C2177      C2178   1.409       .  A
C2177      S2183   1.715       .  A
C2178      C2179   1.410       .  A
C2178      H2189   1.083       .  S
C2179      C2188   1.381       .  A
C2179      C2180   1.387       .  A
C2180      C2181   1.398       .  A
C2180      S2186   1.700       .  A
C2181      C2182   1.399       .  A
C2181      H2190   1.083       .  S
C2182      C2185   1.369       .  A
S2183      C2184   1.729       .  A
C2184      C2185   1.386       .  A
C2185      H2191   1.082       .  S
S2186      C2187   1.723       .  A
C2187      C2188   1.392       .  A
C2188      H2192   1.083       .  S
C2193      C2198   1.387       .  A
C2193      C2194   1.405       .  A
C2193      S2199   1.713       .  A
C2194      C2195   1.406       .  A
C2194      H2205   1.083       .  S
C2195      C2204   1.374       .  A
C2195      C2196   1.387       .  A
C2196      C2197   1.403       .  A
C2196      S2202   1.710       .  A
C2197      C2198   1.404       .  A
C2197      H2206   1.083       .  S
C2198      C2201   1.372       .  A
S2199      C2200   1.722       .  A
C2200      C2201   1.387       .  A
C2201      H2207   1.083       .  S
S2202      C2203   1.723   1_554  A
C2203      C2204   1.389   1_556  A
C2204      H2208   1.083   1_554  S
C2209      C2214   1.387       .  A
C2209      C2210   1.402       .  A
C2209      S2215   1.705       .  A
C2210      C2211   1.402       .  A
C2210      H2221   1.083       .  S
C2211      C2220   1.373       .  A
C2211      C2212   1.386       .  A
C2212      C2213   1.404       .  A
C2212      S2218   1.707       .  A
C2213      C2214   1.404       .  A
C2213      H2222   1.083       .  S
C2214      C2217   1.375       .  A
S2215      C2216   1.725       .  A
C2216      C2217   1.389       .  A
C2217      H2223   1.083       .  S
S2218      C2219   1.726       .  A
C2219      C2220   1.387       .  A
C2220      H2224   1.083       .  S
C2225      C2230   1.387       .  A
C2225      C2226   1.400       .  A
C2225      S2231   1.706       .  A
C2226      C2227   1.401       .  A
C2226      H2237   1.083       .  S
C2227      C2236   1.369       .  A
C2227      C2228   1.387       .  A
C2228      C2229   1.403       .  A
C2228      S2234   1.709       .  A
C2229      C2230   1.404       .  A
C2229      H2238   1.083       .  S
C2230      C2233   1.371       .  A
S2231      C2232   1.721       .  A
C2232      C2233   1.387       .  A
C2233      H2239   1.083       .  S
S2234      C2235   1.724       .  A
C2235      C2236   1.385       .  A
C2236      H2240   1.083       .  S
C2241      C2246   1.387       .  A
C2241      C2242   1.403   1_565  A
C2241      S2247   1.710       .  A
C2242      C2243   1.404       .  A
C2242      H2253   1.083       .  S
C2243      C2252   1.372       .  A
C2243      C2244   1.387       .  A
C2244      C2245   1.400       .  A
C2244      S2250   1.705       .  A
C2245      C2246   1.401   1_545  A
C2245      H2254   1.083   1_545  S
C2246      C2249   1.368       .  A
S2247      C2248   1.723       .  A
C2248      C2249   1.385       .  A
C2249      H2255   1.083       .  S
S2250      C2251   1.721       .  A
C2251      C2252   1.387       .  A
C2252      H2256   1.083       .  S
C2257      C2262   1.387       .  A
C2257      C2258   1.398       .  A
C2257      S2263   1.700       .  A
C2258      C2259   1.398       .  A
C2258      H2269   1.083       .  S
C2259      C2268   1.367       .  A
C2259      C2260   1.386       .  A
C2260      C2261   1.405       .  A
C2260      S2266   1.711       .  A
C2261      C2262   1.406       .  A
C2261      H2270   1.083       .  S
C2262      C2265   1.376       .  A
S2263      C2264   1.723       .  A
C2264      C2265   1.389       .  A
C2265      H2271   1.083       .  S
S2266      C2267   1.725       .  A
C2267      C2268   1.385       .  A
C2268      H2272   1.083       .  S
C2273      C2278   1.387       .  A
C2273      C2274   1.400       .  A
C2273      S2279   1.707       .  A
C2274      C2275   1.401       .  A
C2274      H2285   1.083       .  S
C2275      C2284   1.368       .  A
C2275      C2276   1.387       .  A
C2276      C2277   1.402       .  A
C2276      S2282   1.709       .  A
C2277      C2278   1.404       .  A
C2277      H2286   1.083       .  S
C2278      C2281   1.370       .  A
S2279      C2280   1.721       .  A
C2280      C2281   1.387       .  A
C2281      H2287   1.083       .  S
S2282      C2283   1.722       .  A
C2283      C2284   1.384       .  A
C2284      H2288   1.083       .  S
C2289      C2294   1.386       .  A
C2289      C2290   1.401       .  A
C2289      S2295   1.708       .  A
C2290      C2291   1.403       .  A
C2290      H2301   1.083       .  S
C2291      C2300   1.369       .  A
C2291      C2292   1.386       .  A
C2292      C2293   1.403       .  A
C2292      S2298   1.712       .  A
C2293      C2294   1.405       .  A
C2293      H2302   1.083       .  S
C2294      C2297   1.371       .  A
S2295      C2296   1.724       .  A
C2296      C2297   1.389       .  A
C2297      H2303   1.082       .  S
S2298      C2299   1.724       .  A
C2299      C2300   1.388       .  A
C2300      H2304   1.082       .  S
