geometry optimzed in LAMMPS
_audit_creation_date              2020-11-30 
_audit_creation_method            'lammps2cif' 
_symmetry_space_group_name_H-M    'P1' 
_symmetry_Int_Tables_number       1 
_symmetry_cell_setting            triclinic 
loop_ 
_symmetry_equiv_pos_as_xyz 
  x,y,z 
_cell_length_a                    29.96650326 
_cell_length_b                    29.998341659674317 
_cell_length_c                    25.94740991592453 
_cell_angle_alpha                 89.98307471331253 
_cell_angle_beta                  90.00738862530434 
_cell_angle_gamma                 90.11268775322783 
loop_ 
_atom_site_label 
_atom_site_type_symbol 
_atom_site_fract_x 
_atom_site_fract_y 
_atom_site_fract_z 
_atom_site_charge 
O1          O  0.98434091  0.37784150  0.39952848    -0.73300
O2          O  0.98519323  0.43776847  0.34517890    -0.52200
C3          C  0.47860121  0.39145302  0.36521405     0.80500
O4          O  0.37585710  0.51564424  0.08926657    -0.57900
O5          O  0.43197790  0.52399672  0.14826454    -0.50900
C6          C  0.39070041  0.52049288  0.13573144     0.72500
O7          O  0.37573391  0.00440014  0.40952485    -0.72400
O8          O  0.43442996  0.00248134  0.35326728    -0.53000
C9          C  0.38538714  0.52273092  0.36711617     0.78500
O10         O  0.49896402  0.39259422  0.08747440    -0.57600
O11         O  0.49388701  0.44768470  0.14804715    -0.50700
C12         C  0.49553166  0.40657467  0.13438049     0.75100
Zr13       Zr  0.98273216  0.40072978  0.48917875     2.54700
O14         O  0.41323732  0.35975879  0.49530864    -0.78100
O15         O  0.04421795  0.33951092  0.01366144    -0.91600
Zr16       Zr  0.40132376  0.01324374  0.49850690     2.64700
O17         O  0.33824716  0.46347289  0.49514421    -0.96500
O18         O  0.34127160  0.05387092  0.98579566    -0.78600
O19         O  0.43890707  0.46039074  0.44891979    -0.81900
O20         O  0.45223073  0.46984700  0.05115844    -2.16600
O21         O  0.12346092  0.47692375  0.09082858    -0.65300
O22         O  0.07334976  0.50041993  0.15113322    -0.49900
C23         C  0.09818650  0.99376508  0.14762924     0.73500
O24         O  0.00889427  0.11070057  0.40699186    -0.58200
O25         O  0.00487170  0.05211713  0.35090681    -0.50200
C26         C  0.00716261  0.09414602  0.36116196     0.75300
O27         O  0.48482947  0.13294547  0.07772976    -0.69600
O28         O  0.48701135  0.08414667  0.14528812    -0.48300
C29         C  0.98776680  0.11447708  0.12515395     0.76600
O30         O  0.12374211  0.98869384  0.43024987    -0.65000
O31         O  0.07550276  0.98113037  0.36265156    -0.52100
C32         C  0.11483598  0.98587141  0.38194987     0.75000
Zr33       Zr  0.09555668  0.48247430  0.00332552     2.77500
O34         O  0.15207203  0.03297594  0.52073724    -0.95700
O35         O  0.14040558  0.41506645  0.99709283    -0.76500
Zr36       Zr  0.49448516  0.09519555  0.99566599     2.70100
O37         O  0.06620595  0.13498022  0.99570297    -0.77800
O38         O  0.43549642  0.16441029  0.48454158    -0.96900
Zr39       Zr  0.00240872  0.98445724  0.40378197     2.21500
Zr40       Zr  0.50073748  0.51683686  0.10091943     2.11100
O41         O  0.04294545  0.04104834  0.05484399    -2.45500
O42         O  0.05008275  0.03076210  0.45425741    -0.77600
O43         O  0.04474606  0.44689861  0.05907285    -0.69800
O44         O  0.44992709  0.05699000  0.44763005    -2.30700
O45         O  0.03459382  0.44751685  0.44653252    -2.26900
O46         O  0.44364196  0.05283022  0.04583395    -0.71500
H47         H  0.43370095  0.45151079  0.07307108     0.80500
H48         H  0.43244751  0.07317917  0.42260886     0.81600
H49         H  0.06111575  0.06011878  0.07631780     0.83800
H50         H  0.05179521  0.42987282  0.42259698     0.81400
H51         H  0.35852266  0.09563190  0.47519169     0.44400
H52         H  0.41304286  0.14300505  0.00859471     0.43400
H53         H  0.09465676  0.11102512  0.49595888     0.43100
H54         H  0.13354851  0.06518822  0.98100997     0.41000
H55         H  0.16244594  0.41759834  0.02538216     0.44200
H56         H  0.01759644  0.31272262  0.48013218     0.38900
H57         H  0.39712873  0.36906370  0.46378757     0.45100
H58         H  0.35655345  0.43782579  0.02408634     0.41500
H59         H  0.13888242  0.06336270  0.04101472     0.46400
H60         H  0.05063215  0.33828284  0.51655180     0.45100
H61         H  0.33157812  0.45541724  0.53133654     0.45200
H62         H  0.44868918  0.17840724  0.99168792     0.45600
C63         C  0.50546222  0.30336491  0.26513365     0.04300
C64         C  0.50803289  0.29659918  0.21125737     0.04300
C65         C  0.50936329  0.25267715  0.19263838    -0.16200
C66         C  0.50780066  0.21521049  0.22552334     0.04300
C67         C  0.50809260  0.22218735  0.27959629     0.04300
C68         C  0.50665150  0.26612507  0.29808111    -0.16200
H69         H  0.50682274  0.27161700  0.33942550     0.06300
H70         H  0.51174221  0.24751566  0.15135681     0.06300
C71         C  0.29178977  0.50911816  0.27051712     0.04300
C72         C  0.28324426  0.50718499  0.21695576     0.04300
C73         C  0.23890285  0.50811263  0.20019265    -0.16200
C74         C  0.20262948  0.51004524  0.23472369     0.04300
C75         C  0.21095154  0.51239280  0.28839669     0.04300
C76         C  0.25554105  0.51246967  0.30511576    -0.16200
H77         H  0.26214966  0.51316371  0.34620938     0.06300
H78         H  0.23241205  0.50772447  0.15904006     0.06300
C79         C  0.15730570  0.51046510  0.21185469    -0.14400
C80         C  0.14748620  0.48048088  0.17524759    -0.29600
H81         H  0.17760663  0.95605658  0.14887613     0.14600
H82         H  0.17162867  0.45445727  0.16671205     0.15200
C83         C  0.17571081  0.51429435  0.32936984    -0.14600
C84         C  0.15388858  0.99033135  0.34820110    -0.29600
H85         H  0.18421901  0.53142215  0.36497701     0.14600
H86         H  0.18106564  0.01025244  0.36374530     0.15200
C87         C  0.35847135  0.52293987  0.17857027    -0.14400
C88         C  0.31803055  0.50377198  0.17601882    -0.29600
H89         H  0.30865841  0.03047455  0.15026671     0.14600
H90         H  0.30859438  0.48707243  0.14043402     0.15200
C91         C  0.33722789  0.50460927  0.29277793    -0.14400
C92         C  0.35058357  0.53320313  0.32933111    -0.29600
H93         H  0.35744620  0.47585197  0.28280503     0.14600
H94         H  0.36870807  0.01840748  0.28611998     0.15200
C95         C  0.48065363  0.16253298  0.16030201    -0.14400
C96         C  0.50738532  0.17029583  0.20101649    -0.29600
H97         H  0.95951550  0.17880558  0.14604414     0.14600
H98         H  0.53043784  0.14483549  0.21423599     0.15200
C99         C  0.51154898  0.18689135  0.31998796    -0.14400
C100        C  0.00492315  0.12604473  0.31735273    -0.29600
H101        H  0.04465465  0.17349200  0.35393761     0.14600
H102        H  0.47960339  0.13288132  0.28224489     0.15200
C103        C  0.51087253  0.33275427  0.17184343    -0.14400
C104        C  0.49215110  0.37326119  0.17598629    -0.29600
H105        H  0.96972618  0.31665695  0.15964714     0.14600
H106        H  0.47341399  0.38271253  0.20987818     0.15200
C107        C  0.50402909  0.34804209  0.28976238    -0.14400
C108        C  0.47384817  0.35590609  0.32685462    -0.29600
H109        H  0.52961933  0.37252682  0.28070530     0.14600
H110        H  0.44937717  0.33017561  0.33564613     0.15200
O111        O  0.97892230  0.36455626  0.93406197    -0.73300
O112        O  0.99526310  0.41014030  0.86590292    -0.52200
C113        C  0.49217917  0.40990288  0.86527611     0.80500
O114        O  0.37007260  0.52173268  0.58546541    -0.57900
O115        O  0.42041192  0.50287920  0.64778880    -0.50900
C116        C  0.38103930  0.51406059  0.63242714     0.72500
O117        O  0.37719620  0.99744540  0.90584178    -0.72400
O118        O  0.43603864  0.99592131  0.84977096    -0.53000
C119        C  0.38959855  0.51414481  0.86604772     0.78500
O120        O  0.47258734  0.37479746  0.58410264    -0.57600
O121        O  0.48456061  0.42609821  0.64759923    -0.50700
C122        C  0.47701863  0.38609115  0.63157279     0.75100
Zr123      Zr  0.99252342  0.40199735  0.01516726     2.54700
O124        O  0.44071514  0.36701455  0.00210893    -0.78100
O125        O  0.03619341  0.33998301  0.48228585    -0.91600
Zr126      Zr  0.40211949  0.00092672  0.99577602     2.64700
O127        O  0.34727784  0.46056070  0.99860067    -0.96500
O128        O  0.34255317  0.06787790  0.48454597    -0.78600
O129        O  0.45281566  0.47135137  0.95010723    -0.81900
O130        O  0.43785825  0.45877797  0.54963990    -2.16600
O131        O  0.11383581  0.47921085  0.59198315    -0.65300
O132        O  0.05753036  0.47954674  0.65145809    -0.49900
C133        C  0.09506195  0.98788566  0.64894785     0.73500
O134        O  0.00803844  0.10756374  0.90566053    -0.58200
O135        O  0.01017935  0.04904905  0.84954496    -0.50200
C136        C  0.01007011  0.09098501  0.85996331     0.75300
O137        O  0.48225995  0.14491924  0.57986968    -0.69600
O138        O  0.48619509  0.09558754  0.64694474    -0.48300
C139        C  0.99977932  0.11067431  0.62671145     0.76600
O140        O  0.12385406  0.97147920  0.93151339    -0.65000
O141        O  0.07427395  0.97575619  0.86471078    -0.52100
C142        C  0.11371357  0.97061990  0.88342632     0.75000
Zr143      Zr  0.08409473  0.48509728  0.50344627     2.77500
O144        O  0.14356455  0.04552916  0.00938415    -0.95700
O145        O  0.13514711  0.42212740  0.49999358    -0.76500
Zr146      Zr  0.49268061  0.10780712  0.49710763     2.70100
O147        O  0.06903987  0.13168195  0.49312421    -0.77800
O148        O  0.43540445  0.14947479  0.98149869    -0.96900
Zr149      Zr  0.00145407  0.98399400  0.90475922     2.21500
Zr150      Zr  0.49142898  0.49692727  0.60149046     2.11100
O151        O  0.04260392  0.03759347  0.55507624    -2.45500
O152        O  0.04884047  0.03211005  0.95366359    -0.77600
O153        O  0.03319549  0.43668220  0.54651947    -0.69800
O154        O  0.45134170  0.04517896  0.94589451    -2.30700
O155        O  0.04484379  0.43606176  0.95834115    -2.26900
O156        O  0.44321576  0.06471722  0.54833402    -0.71500
H157        H  0.41634043  0.44294904  0.57051992     0.80500
H158        H  0.43439096  0.06212295  0.92105796     0.81600
H159        H  0.06135037  0.05557589  0.57711829     0.83800
H160        H  0.06088878  0.41385202  0.93881237     0.81400
H161        H  0.35539329  0.08053894  0.97025390     0.44400
H162        H  0.41057188  0.15494805  0.50709725     0.43400
H163        H  0.06250636  0.15351570  0.02695704     0.43100
H164        H  0.14763687  0.05008212  0.55295106     0.41000
H165        H  0.16438606  0.43553926  0.49116341     0.44200
H166        H  0.02915962  0.31578238  0.03374439     0.38900
H167        H  0.41865358  0.37681993  0.97607481     0.45100
H168        H  0.35054950  0.43587988  0.47990667     0.41500
H169        H  0.17744535  0.01289321  0.52822443     0.46400
H170        H  0.06938554  0.34917554  0.03575400     0.45100
H171        H  0.32094680  0.47511821  0.01427739     0.45200
H172        H  0.44753289  0.19158635  0.50119401     0.45600
C173        C  0.51043611  0.30024744  0.79336184     0.04300
C174        C  0.50117358  0.30148073  0.73998971     0.04300
C175        C  0.49872877  0.26063286  0.71312265    -0.16200
C176        C  0.50401075  0.21892330  0.73793231     0.04300
C177        C  0.51316742  0.21826007  0.79156524     0.04300
C178        C  0.51661428  0.25904462  0.81778051    -0.16200
H179        H  0.52365437  0.25878161  0.85882666     0.06300
H180        H  0.49560506  0.26148098  0.67161356     0.06300
C181        C  0.28531793  0.48073989  0.78579188     0.04300
C182        C  0.29211604  0.48504833  0.73204371     0.04300
C183        C  0.25503294  0.48143589  0.69854137    -0.16200
C184        C  0.21111579  0.47514009  0.71646510     0.04300
C185        C  0.20461263  0.47121824  0.77044992     0.04300
C186        C  0.24190219  0.47280758  0.80364232    -0.16200
H187        H  0.23673985  0.46876247  0.84478326     0.06300
H188        H  0.26059996  0.48317639  0.65729679     0.06300
C189        C  0.17538457  0.47196543  0.67581588    -0.14400
C190        C  0.13153183  0.48046532  0.68204038    -0.29600
H191        H  0.17049268  0.03058476  0.65840991     0.14600
H192        H  0.11837685  0.49081872  0.71885230     0.15200
C193        C  0.16032022  0.46640344  0.79533018    -0.14600
C194        C  0.15111347  0.96328771  0.84821014    -0.29600
H195        H  0.13869598  0.43856404  0.78552141     0.14600
H196        H  0.17637427  0.93969076  0.86052026     0.15200
C197        C  0.34390802  0.51781965  0.66928095    -0.14400
C198        C  0.33727608  0.48943767  0.70858739    -0.29600
H199        H  0.31098280  0.05303374  0.65419170     0.14600
H200        H  0.36359492  0.46685797  0.72061585     0.15200
C201        C  0.32106900  0.48385879  0.82594892    -0.14400
C202        C  0.35671361  0.51115558  0.82353839    -0.29600
H203        H  0.31597942  0.46487428  0.86118629     0.14600
H204        H  0.37163429  0.01974825  0.78388836     0.15200
C205        C  0.47890701  0.17321037  0.66365198    -0.14400
C206        C  0.50437614  0.17758651  0.70606594    -0.29600
H207        H  0.02875747  0.17485054  0.64548228     0.14600
H208        H  0.52723340  0.15096857  0.71633878     0.15200
C209        C  0.52041003  0.17768829  0.82419003    -0.14400
C210        C  0.01138938  0.12325499  0.81689570    -0.29600
H211        H  0.97811565  0.17146398  0.86063572     0.14600
H212        H  0.48211307  0.12886439  0.78425761     0.15200
C213        C  0.49909454  0.34439750  0.71053009    -0.14400
C214        C  0.47299272  0.34899094  0.66866994    -0.29600
H215        H  0.01437364  0.35296183  0.71122842     0.14600
H216        H  0.45136927  0.32160628  0.65730851     0.15200
C217        C  0.51530204  0.34004011  0.82674694    -0.14400
C218        C  0.48934271  0.37632231  0.82427606    -0.29600
H219        H  0.53846649  0.33722519  0.85890377     0.14600
H220        H  0.46509143  0.38083141  0.79369896     0.15200
O221        O  0.98086298  0.86327752  0.42888989    -0.73300
O222        O  0.99899771  0.91089028  0.36335338    -0.52200
C223        C  0.49160229  0.89421023  0.38521363     0.80500
O224        O  0.36582499  0.00919010  0.07954089    -0.57900
O225        O  0.41543627  0.01020125  0.14650355    -0.50900
C226        C  0.37566022  0.01024751  0.12784808     0.72500
O227        O  0.37277799  0.52649801  0.41412749    -0.72400
O228        O  0.42492148  0.51169830  0.35230460    -0.53000
C229        C  0.39251845  0.00177558  0.36383637     0.78500
O230        O  0.49550083  0.88622756  0.10411389    -0.57600
O231        O  0.48572415  0.94489860  0.15907151    -0.50700
C232        C  0.49066311  0.90317338  0.14948427     0.75100
Zr233      Zr  0.98699337  0.89903065  0.51226440     2.54700
O234        O  0.43849119  0.86563015  0.52553866    -0.78100
O235        O  0.04079904  0.83943299  0.01873444    -0.91600
Zr236      Zr  0.40159959  0.51425963  0.50000908     2.64700
O237        O  0.34897088  0.95146573  0.50568248    -0.96500
O238        O  0.35347701  0.57872450  0.00039964    -0.78600
O239        O  0.45082727  0.96364001  0.45689749    -0.81900
O240        O  0.44475074  0.95892409  0.05522089    -2.16600
O241        O  0.11364490  0.98677861  0.10205379    -0.65300
O242        O  0.05687543  0.00161360  0.15808336    -0.49900
C243        C  0.11206369  0.48652369  0.13716261     0.73500
O244        O  0.99715783  0.62511450  0.43570783    -0.58200
O245        O  0.99667120  0.57833776  0.36615394    -0.50200
C246        C  0.99677366  0.61744149  0.38714194     0.75300
O247        O  0.50981008  0.63990382  0.08855590    -0.69600
O248        O  0.50681909  0.58582138  0.15040689    -0.48300
C249        C  0.02233349  0.61614836  0.11777645     0.76600
O250        O  0.11678660  0.49119040  0.41623237    -0.65000
O251        O  0.06174620  0.49893405  0.35566462    -0.52100
C252        C  0.10286071  0.49508954  0.36921693     0.75000
Zr253      Zr  0.08759209  0.98657403  0.01327782     2.77500
O254        O  0.14440328  0.53936264  0.50978767    -0.95700
O255        O  0.14362031  0.92879625  0.02487608    -0.76500
Zr256      Zr  0.49973291  0.60974681  0.00271406     2.70100
O257        O  0.07865085  0.63266986  0.97920417    -0.77800
O258        O  0.46165912  0.65794640  0.50390140    -0.96900
Zr259      Zr  0.99162852  0.50266403  0.40214121     2.21500
Zr260      Zr  0.48791134  0.01059620  0.10472553     2.11100
O261        O  0.05624049  0.53964026  0.04636705    -2.45500
O262        O  0.04245331  0.54034641  0.45862255    -0.77600
O263        O  0.03517922  0.94712460  0.06400558    -0.69800
O264        O  0.45493951  0.55435637  0.45137744    -2.30700
O265        O  0.04177760  0.93684570  0.46232520    -2.26900
O266        O  0.45227625  0.56371335  0.05234150    -0.71500
H267        H  0.42528169  0.94179760  0.07734694     0.80500
H268        H  0.44012588  0.57595498  0.42975290     0.81600
H269        H  0.07737775  0.55743717  0.06554527     0.83800
H270        H  0.06004088  0.91583228  0.44365852     0.81400
H271        H  0.37073230  0.60380780  0.49161628     0.44400
H272        H  0.44811716  0.68905742  0.99290176     0.43400
H273        H  0.07622394  0.62674709  0.55489741     0.43100
H274        H  0.15883691  0.54680204  0.04000754     0.41000
H275        H  0.12859758  0.90100096  0.01373043     0.44200
H276        H  0.05926672  0.84260841  0.54163362     0.38900
H277        H  0.41869740  0.87652361  0.55333225     0.45100
H278        H  0.36032807  0.91934601  0.02644153     0.41500
H279        H  0.18676198  0.50531748  0.02257925     0.46400
H280        H  0.05722958  0.84030099  0.48145324     0.45100
H281        H  0.36267836  0.92723631  0.48522419     0.45200
H282        H  0.41401315  0.64952631  0.99047174     0.45600
C283        C  0.50484821  0.80188647  0.28364259     0.04300
C284        C  0.50592755  0.79605671  0.22958003     0.04300
C285        C  0.50320020  0.75282433  0.20935014    -0.16200
C286        C  0.50036090  0.71467245  0.24083652     0.04300
C287        C  0.49983507  0.72032112  0.29495867     0.04300
C288        C  0.50215399  0.76366109  0.31525566    -0.16200
H289        H  0.50324956  0.76745920  0.35678348     0.06300
H290        H  0.50207822  0.74899372  0.16780273     0.06300
C291        C  0.28581218  0.97507804  0.28604133     0.04300
C292        C  0.29002457  0.97995810  0.23189696     0.04300
C293        C  0.25115849  0.97721571  0.20132993    -0.16200
C294        C  0.20820996  0.97416218  0.22268210     0.04300
C295        C  0.20385177  0.97137799  0.27678658     0.04300
C296        C  0.24293918  0.96975610  0.30707609    -0.16200
H297        H  0.23996725  0.96478157  0.34832345     0.06300
H298        H  0.25423415  0.97771766  0.15970296     0.06300
C299        C  0.17045544  0.97242293  0.18533353    -0.14400
C300        C  0.13077318  0.99312023  0.19070044    -0.29600
H301        H  0.13436898  0.53727231  0.22118959     0.14600
H302        H  0.12262788  0.01103800  0.22572988     0.15200
C303        C  0.15975569  0.96892641  0.30325456    -0.14600
C304        C  0.13586823  0.49360868  0.32675440    -0.29600
H305        H  0.13287430  0.94920887  0.28678510     0.14600
H306        H  0.12639620  0.47503856  0.29268885     0.15200
C307        C  0.33736561  0.01142742  0.16314692    -0.14400
C308        C  0.33375164  0.98517381  0.20508785    -0.29600
H309        H  0.36869719  0.54121241  0.21258743     0.14600
H310        H  0.36215833  0.96560336  0.21784648     0.15200
C311        C  0.32334927  0.97494297  0.32392875    -0.14400
C312        C  0.36115107  0.99890896  0.32012289    -0.29600
H313        H  0.31755314  0.95706386  0.35982319     0.14600
H314        H  0.32893468  0.56105192  0.33893110     0.15200
C315        C  0.52079018  0.66181766  0.17303886    -0.14400
C316        C  0.49601756  0.67049587  0.21496161    -0.29600
H317        H  0.04967462  0.68169884  0.13556068     0.14600
H318        H  0.47079495  0.64694923  0.22787365     0.15200
C319        C  0.49633333  0.68345438  0.33311902    -0.14400
C320        C  0.99439608  0.65782999  0.35512024    -0.29600
H321        H  0.02765759  0.63214699  0.29092092     0.14600
H322        H  0.53363953  0.63431278  0.29353523     0.15200
C323        C  0.51039166  0.83249686  0.19106327    -0.14400
C324        C  0.48994875  0.87224658  0.19380175    -0.29600
H325        H  0.02702340  0.81817770  0.14938098     0.14600
H326        H  0.47105124  0.88174390  0.22767837     0.15200
C327        C  0.50847081  0.84653509  0.30871956    -0.14400
C328        C  0.48477231  0.85541978  0.35143136    -0.29600
H329        H  0.53153252  0.87118130  0.29341857     0.14600
H330        H  0.46166950  0.83039344  0.36588157     0.15200
O331        O  0.98192250  0.86276697  0.93158445    -0.73300
O332        O  0.99583678  0.91016360  0.86452220    -0.52200
C333        C  0.49721930  0.88165183  0.88293172     0.80500
O334        O  0.36443819  0.02556091  0.58053213    -0.57900
O335        O  0.41417383  0.02196762  0.64727386    -0.50900
C336        C  0.37442189  0.02512859  0.62867742     0.72500
O337        O  0.37558215  0.51016065  0.91297467    -0.72400
O338        O  0.43043213  0.52086009  0.85292670    -0.53000
C339        C  0.39401557  0.99667448  0.86003900     0.78500
O340        O  0.49984332  0.89834409  0.60375215    -0.57600
O341        O  0.48939610  0.95522935  0.66078975    -0.50700
C342        C  0.49615740  0.91392004  0.64965381     0.75100
Zr343      Zr  0.98771749  0.90073023  0.01424478     2.54700
O344        O  0.43887397  0.85249218  0.02475706    -0.78100
O345        O  0.03865559  0.83638272  0.51267816    -0.91600
Zr346      Zr  0.40593687  0.51692309  0.00100084     2.64700
O347        O  0.35173056  0.93708090  0.99584898    -0.96500
O348        O  0.35187885  0.57834356  0.50247675    -0.78600
O349        O  0.45179938  0.95128824  0.95423319    -0.81900
O350        O  0.44425480  0.97081422  0.55758272    -2.16600
O351        O  0.11192384  0.98484074  0.60342210    -0.65300
O352        O  0.05327255  0.99223393  0.65902609    -0.49900
C353        C  0.09904424  0.47909388  0.63883420     0.73500
O354        O  0.01455694  0.60861482  0.90027072    -0.58200
O355        O  0.01295405  0.54882952  0.84595548    -0.50200
C356        C  0.01506505  0.59101790  0.85508615     0.75300
O357        O  0.50889889  0.62094606  0.59124337    -0.69600
O358        O  0.49624184  0.56605886  0.65057508    -0.48300
C359        C  0.99299604  0.58939880  0.65003077     0.76600
O360        O  0.12610658  0.49154030  0.91778524    -0.65000
O361        O  0.07368029  0.47938703  0.85545046    -0.52100
C362        C  0.11385510  0.48730323  0.87068076     0.75000
Zr363      Zr  0.08752039  0.98376353  0.51363262     2.77500
O364        O  0.16377645  0.52654836  0.01043882    -0.95700
O365        O  0.13560457  0.91843840  0.51584212    -0.76500
Zr366      Zr  0.50829083  0.59150618  0.50340094     2.70100
O367        O  0.06193507  0.63406104  0.52155433    -0.77800
O368        O  0.43828359  0.66213806  0.01188268    -0.96900
Zr369      Zr  0.00325302  0.48428229  0.90263552     2.21500
Zr370      Zr  0.48771897  0.02216194  0.60692242     2.11100
O371        O  0.04053131  0.52973753  0.55954494    -2.45500
O372        O  0.05542321  0.52987565  0.94706282    -0.77600
O373        O  0.03418244  0.94439945  0.56304008    -0.69800
O374        O  0.45197961  0.56495114  0.95139580    -2.30700
O375        O  0.04167026  0.93815700  0.96386707    -2.26900
O376        O  0.45376595  0.55255169  0.55217512    -0.71500
H377        H  0.42485346  0.95366462  0.57976388     0.80500
H378        H  0.43329704  0.58338734  0.92984452     0.81600
H379        H  0.05951473  0.54507583  0.58383844     0.83800
H380        H  0.05943147  0.91626496  0.94592328     0.81400
H381        H  0.32648538  0.56664219  0.98335696     0.44400
H382        H  0.44274998  0.65496339  0.53501114     0.43400
H383        H  0.09682922  0.61778574  0.95241373     0.43100
H384        H  0.13288920  0.56260035  0.53334433     0.41000
H385        H  0.16461487  0.92908365  0.50227427     0.44200
H386        H  0.02436648  0.81501092  0.03609187     0.38900
H387        H  0.45448125  0.82432247  0.01650865     0.45100
H388        H  0.32276069  0.96088497  0.48518227     0.41500
H389        H  0.16808247  0.52419257  0.52977122     0.46400
H390        H  0.06322956  0.84923040  0.04439003     0.45100
H391        H  0.32223049  0.94969791  0.00480983     0.45200
H392        H  0.48238128  0.68272451  0.51199431     0.45600
C393        C  0.51672027  0.79973207  0.76906122     0.04300
C394        C  0.52067966  0.80190758  0.71482024     0.04300
C395        C  0.52295885  0.76216022  0.68617063    -0.16200
C396        C  0.52055292  0.71980336  0.70909086     0.04300
C397        C  0.51729719  0.71717130  0.76344733     0.04300
C398        C  0.51614500  0.75720673  0.79239161    -0.16200
H399        H  0.51705717  0.75508768  0.83400268     0.06300
H400        H  0.52589918  0.76432510  0.64454570     0.06300
C401        C  0.28344859  0.98655284  0.78368516     0.04300
C402        C  0.28618038  0.99814669  0.73083829     0.04300
C403        C  0.24630527  0.00522705  0.70310851    -0.16200
C404        C  0.20401230  0.00098796  0.72583346     0.04300
C405        C  0.20120224  0.98945314  0.77856246     0.04300
C406        C  0.24105811  0.98253845  0.80635031    -0.16200
H407        H  0.23945273  0.97599927  0.84734775     0.06300
H408        H  0.24793100  0.01230510  0.66219350     0.06300
C409        C  0.16504349  0.00848624  0.69109480    -0.14400
C410        C  0.12649774  0.98543005  0.69255479    -0.29600
H411        H  0.18663595  0.46388524  0.63710766     0.14600
H412        H  0.11920660  0.96206486  0.72328628     0.15200
C413        C  0.15797898  0.98926569  0.80681025    -0.14600
C414        C  0.14958523  0.49477538  0.83322580    -0.29600
H415        H  0.13243151  0.01299704  0.79549197     0.14600
H416        H  0.17279845  0.52150727  0.84262734     0.15200
C417        C  0.33641635  0.02873570  0.66401476    -0.14400
C418        C  0.32923000  0.99940086  0.70229613    -0.29600
H419        H  0.31677869  0.53983662  0.65810708     0.14600
H420        H  0.35447463  0.97459315  0.71113655     0.15200
C421        C  0.32217808  0.97901775  0.81910328    -0.14400
C422        C  0.36247431  0.99883085  0.81619654    -0.29600
H423        H  0.31536680  0.95920584  0.85335548     0.14600
H424        H  0.36266052  0.53147177  0.78968895     0.15200
C425        C  0.50316343  0.64086697  0.67950193    -0.14400
C426        C  0.52300992  0.68090109  0.67302054    -0.29600
H427        H  0.96779654  0.61615307  0.72424040     0.14600
H428        H  0.53967625  0.68709280  0.63647521     0.15200
C429        C  0.51830841  0.67391896  0.79178390    -0.14400
C430        C  0.01856534  0.62241927  0.81121267    -0.29600
H431        H  0.97327316  0.66617021  0.84504794     0.14600
H432        H  0.47057953  0.69470977  0.84567618     0.15200
C433        C  0.52402215  0.84378882  0.68442982    -0.14400
C434        C  0.49922199  0.88075497  0.69163073    -0.29600
H435        H  0.03571634  0.81729317  0.65318952     0.14600
H436        H  0.47810514  0.88473355  0.72523449     0.15200
C437        C  0.51686051  0.84089869  0.80191426    -0.14400
C438        C  0.49557347  0.84286308  0.84761676    -0.29600
H439        H  0.53504656  0.87003574  0.78857144     0.14600
H440        H  0.47740263  0.81387272  0.86139746     0.15200
O441        O  0.47407842  0.37848070  0.41201818    -0.73300
O442        O  0.48659454  0.43178990  0.35096430    -0.52200
C443        C  0.98460229  0.39550662  0.35436956     0.80500
O444        O  0.87994972  0.51385857  0.09010130    -0.57900
O445        O  0.93564118  0.51535601  0.15031951    -0.50900
C446        C  0.89431868  0.51704922  0.13693999     0.72500
O447        O  0.87898793  0.99698117  0.40550104    -0.72400
O448        O  0.93695338  0.98930653  0.34910293    -0.53000
C449        C  0.88179523  0.52007367  0.37058771     0.78500
O450        O  0.99957237  0.37858071  0.10479791    -0.57600
O451        O  0.00715254  0.43820436  0.15876045    -0.50700
C452        C  0.00511984  0.39596130  0.14974516     0.75100
Zr453      Zr  0.47885499  0.40768370  0.49886404     2.54700
O454        O  0.91861043  0.35179683  0.47691278    -0.78100
O455        O  0.55838315  0.36886139  0.99837393    -0.91600
Zr456      Zr  0.90284338  0.99841354  0.49505195     2.64700
O457        O  0.84358361  0.43909609  0.49520314    -0.96500
O458        O  0.85128855  0.06070503  0.98456858    -0.78600
O459        O  0.93980151  0.45441469  0.44435608    -0.81900
O460        O  0.95108422  0.45682406  0.05979687    -2.16600
O461        O  0.62241077  0.49852339  0.08419379    -0.65300
O462        O  0.57087257  0.50768570  0.14807414    -0.49900
C463        C  0.59549862  0.00558159  0.14897743     0.73500
O464        O  0.49629015  0.13220680  0.40710649    -0.58200
O465        O  0.49872595  0.07271567  0.35206735    -0.50200
C466        C  0.49735135  0.11474143  0.36163400     0.75300
O467        O  0.99034722  0.12347002  0.07676357    -0.69600
O468        O  0.98867454  0.07503130  0.14473743    -0.48300
C469        C  0.48466947  0.12369897  0.12607793     0.76600
O470        O  0.62270234  0.02158054  0.43057679    -0.65000
O471        O  0.57413318  0.00635769  0.36499638    -0.52100
C472        C  0.61342005  0.01468248  0.38289110     0.75000
Zr473      Zr  0.59247435  0.51596478  0.00002803     2.77500
O474        O  0.64050461  0.07887291  0.52073334    -0.95700
O475        O  0.64959373  0.45927332  0.98755599    -0.76500
Zr476      Zr  0.00216251  0.08480175  0.99522390     2.70100
O477        O  0.55360163  0.15098094  0.99715943    -0.77800
O478        O  0.94929312  0.14307745  0.48712926    -0.96900
Zr479      Zr  0.50089333  0.00698348  0.40635869     2.21500
Zr480      Zr  0.00424040  0.50364554  0.10238937     2.11100
O481        O  0.53851869  0.05430183  0.05494121    -2.45500
O482        O  0.54345656  0.05953431  0.45509251    -0.77600
O483        O  0.54652702  0.46901690  0.05038850    -0.69800
O484        O  0.95611409  0.03797264  0.44574839    -2.30700
O485        O  0.53392694  0.44620060  0.45047063    -2.26900
O486        O  0.94861775  0.04681356  0.04611773    -0.71500
H487        H  0.93157618  0.44245211  0.08437432     0.80500
H488        H  0.94056131  0.05648874  0.42120949     0.81600
H489        H  0.55549425  0.07418776  0.07673070     0.83800
H490        H  0.54970625  0.42571474  0.42831516     0.81400
H491        H  0.85686550  0.08112064  0.50574186     0.44400
H492        H  0.92665942  0.14218147  0.00435376     0.43400
H493        H  0.54083971  0.18917431  0.48554305     0.43100
H494        H  0.67182266  0.04741670  0.01447669     0.41000
H495        H  0.64014014  0.44228029  0.95671983     0.44200
H496        H  0.54522689  0.34498293  0.46767557     0.38900
H497        H  0.89854769  0.35834700  0.50624656     0.45100
H498        H  0.86311971  0.42034533  0.99470857     0.41500
H499        H  0.63698821  0.08332007  0.99714038     0.46400
H500        H  0.50734962  0.31719366  0.49422624     0.45100
H501        H  0.83197347  0.44108970  0.45955139     0.45200
H502        H  0.96651677  0.17267202  0.98701199     0.45600
C503        C  0.01023385  0.28764110  0.28084594     0.04300
C504        C  0.00039373  0.28533671  0.22742976     0.04300
C505        C  0.99874638  0.24296677  0.20399311    -0.16200
C506        C  0.00591729  0.20276857  0.23136663     0.04300
C507        C  0.01599978  0.20533972  0.28473333     0.04300
C508        C  0.01853389  0.24771311  0.30783830    -0.16200
H509        H  0.02602300  0.24962153  0.34871558     0.06300
H510        H  0.99362887  0.24176886  0.16271839     0.06300
C511        C  0.79145379  0.50950230  0.26961698     0.04300
C512        C  0.78396395  0.50825158  0.21578803     0.04300
C513        C  0.73962778  0.50867228  0.19808734    -0.16200
C514        C  0.70261022  0.50993253  0.23193763     0.04300
C515        C  0.71036628  0.51102364  0.28575617     0.04300
C516        C  0.75453960  0.51084095  0.30337106    -0.16200
H517        H  0.76024475  0.51011950  0.34464787     0.06300
H518        H  0.73391042  0.50914341  0.15682637     0.06300
C519        C  0.65712388  0.51306829  0.20903444    -0.14400
C520        C  0.64656675  0.48811958  0.16786458    -0.29600
H521        H  0.67386134  0.96708203  0.15194236     0.14600
H522        H  0.67042861  0.46343448  0.15448337     0.15200
C523        C  0.67494113  0.51239335  0.32631762    -0.14600
C524        C  0.65197693  0.01708826  0.34782096    -0.29600
H525        H  0.68297037  0.52976272  0.36192769     0.14600
H526        H  0.67930254  0.03853658  0.35997361     0.15200
C527        C  0.86110194  0.52261804  0.17887477    -0.14400
C528        C  0.81977837  0.50490687  0.17559873    -0.29600
H529        H  0.81101998  0.03543550  0.14992180     0.14600
H530        H  0.81070234  0.48801243  0.14002546     0.15200
C531        C  0.83648835  0.50611555  0.29307265    -0.14400
C532        C  0.84681966  0.53170153  0.33371016    -0.29600
H533        H  0.85903761  0.48000767  0.28038888     0.14600
H534        H  0.87473836  0.01225194  0.28138490     0.15200
C535        C  0.98221267  0.15316145  0.15941773    -0.14400
C536        C  0.00682106  0.15971093  0.20223077    -0.29600
H537        H  0.45861944  0.18890808  0.14705983     0.14600
H538        H  0.02974860  0.13379514  0.21449740     0.15200
C539        C  0.02455135  0.16651440  0.31996249    -0.14400
C540        C  0.49561117  0.14509430  0.31684128    -0.29600
H541        H  0.52607569  0.19720593  0.35653571     0.14600
H542        H  0.98360134  0.11720724  0.28522236     0.15200
C543        C  0.99130783  0.32392113  0.19231414    -0.14400
C544        C  0.01098777  0.36442740  0.19344826    -0.29600
H545        H  0.52785975  0.32460541  0.13603496     0.14600
H546        H  0.03361095  0.37357189  0.22429438     0.15200
C547        C  0.01315564  0.32895795  0.31249522    -0.14400
C548        C  0.98485986  0.36376011  0.31080695    -0.29600
H549        H  0.03667672  0.32783165  0.34446053     0.14600
H550        H  0.95985553  0.36679665  0.28080538     0.15200
O551        O  0.49407255  0.39540079  0.91202882    -0.73300
O552        O  0.49292669  0.45106675  0.85171688    -0.52200
C553        C  0.98427823  0.37231365  0.88581222     0.80500
O554        O  0.86859770  0.50485238  0.58840691    -0.57900
O555        O  0.91838320  0.48318556  0.65005973    -0.50900
C556        C  0.87947723  0.49603366  0.63514455     0.72500
O557        O  0.87686652  0.99256573  0.90722180    -0.72400
O558        O  0.93545204  0.98957208  0.85091693    -0.53000
C559        C  0.89227422  0.49197551  0.86818896     0.78500
O560        O  0.97653404  0.35946727  0.56895364    -0.57600
O561        O  0.98648314  0.40585570  0.63788115    -0.50700
C562        C  0.98042169  0.36703663  0.61738475     0.75100
Zr563      Zr  0.49878026  0.42391019  0.00003805     2.54700
O564        O  0.92817078  0.35467154  0.03237128    -0.78100
O565        O  0.52763408  0.34283414  0.49987675    -0.91600
Zr566      Zr  0.90259518  0.99880118  0.99651067     2.64700
O567        O  0.85040679  0.44778447  0.00992573    -0.96500
O568        O  0.84818053  0.05723307  0.48138583    -0.78600
O569        O  0.95111026  0.44763124  0.95820436    -0.81900
O570        O  0.93834472  0.44375221  0.54613658    -2.16600
O571        O  0.61559855  0.47712801  0.58988336    -0.65300
O572        O  0.55958753  0.48315178  0.64945698    -0.49900
C573        C  0.59564728  0.01823601  0.64997006     0.73500
O574        O  0.50144218  0.12079049  0.90697101    -0.58200
O575        O  0.50214545  0.06251920  0.85031481    -0.50200
C576        C  0.50235880  0.10449673  0.86105228     0.75300
O577        O  0.00503110  0.11968339  0.57874488    -0.69600
O578        O  0.99128467  0.07164915  0.64535502    -0.48300
C579        C  0.48281649  0.13520693  0.62816782     0.76600
O580        O  0.62448871  0.00823519  0.93145668    -0.65000
O581        O  0.57614434  0.99656301  0.86461606    -0.52100
C582        C  0.61538507  0.00351219  0.88342947     0.75000
Zr583      Zr  0.58621821  0.48614642  0.50175054     2.77500
O584        O  0.64339817  0.06157706  0.02487723    -0.95700
O585        O  0.63391677  0.42079380  0.49490001    -0.76500
Zr586      Zr  0.00374992  0.08337112  0.49558524     2.70100
O587        O  0.55379602  0.16131855  0.49944278    -0.77800
O588        O  0.95009520  0.14516343  0.97767098    -0.96900
Zr589      Zr  0.50215683  0.99552920  0.90423458     2.21500
Zr590      Zr  0.98865666  0.48174611  0.60258831     2.11100
O591        O  0.53710746  0.06722824  0.55647857    -2.45500
O592        O  0.54520846  0.04636909  0.95460423    -0.77600
O593        O  0.53239949  0.44524092  0.55011997    -0.69800
O594        O  0.95501717  0.03817456  0.94581876    -2.30700
O595        O  0.54615440  0.46980100  0.94904958    -2.26900
O596        O  0.94893629  0.04566454  0.54555182    -0.71500
H597        H  0.91795912  0.42502911  0.56526913     0.80500
H598        H  0.93924179  0.05601473  0.92078097     0.81600
H599        H  0.55372168  0.08739613  0.57827445     0.83800
H600        H  0.56402541  0.45157486  0.92639778     0.81400
H601        H  0.82134404  0.04668335  0.98463606     0.44400
H602        H  0.92845389  0.13859176  0.51629266     0.43400
H603        H  0.57318443  0.14210892  0.02610953     0.43100
H604        H  0.62373750  0.10416895  0.53561309     0.41000
H605        H  0.66360120  0.43285091  0.48548675     0.44200
H606        H  0.58370314  0.38370528  0.01593789     0.38900
H607        H  0.93968144  0.32388572  0.02913012     0.45100
H608        H  0.81837409  0.44885095  0.51710889     0.41500
H609        H  0.66148669  0.06981941  0.54827086     0.46400
H610        H  0.56767656  0.36711742  0.96181991     0.45100
H611        H  0.84809080  0.44112211  0.04719857     0.45200
H612        H  0.96595026  0.17057081  0.49595270     0.45600
C613        C  0.00023916  0.28395240  0.78188189     0.04300
C614        C  0.99702419  0.28187902  0.72783827     0.04300
C615        C  0.99349885  0.23957678  0.70431719    -0.16200
C616        C  0.99280135  0.19958127  0.73335757     0.04300
C617        C  0.99632814  0.20232859  0.78755309     0.04300
C618        C  0.00042317  0.24434880  0.81068897    -0.16200
H619        H  0.00385026  0.24628213  0.85225512     0.06300
H620        H  0.99072366  0.23758980  0.66288563     0.06300
C621        C  0.78154797  0.47716642  0.79012373     0.04300
C622        C  0.78879501  0.47782504  0.73606800     0.04300
C623        C  0.75168353  0.47993794  0.70256531    -0.16200
C624        C  0.70769560  0.48273321  0.72038533     0.04300
C625        C  0.70024451  0.48301289  0.77418528     0.04300
C626        C  0.73710917  0.47897637  0.80798729    -0.16200
H627        H  0.73104312  0.47867943  0.84920089     0.06300
H628        H  0.75712458  0.47938336  0.66123466     0.06300
C629        C  0.67254678  0.49006183  0.68036218    -0.14400
C630        C  0.63262518  0.46956419  0.67920692    -0.29600
H631        H  0.67370075  0.97919666  0.64807953     0.14600
H632        H  0.62278268  0.44701982  0.70974130     0.15200
C633        C  0.65523769  0.48974223  0.79700171    -0.14600
C634        C  0.65415308  0.00710234  0.84913869    -0.29600
H635        H  0.62982908  0.46434176  0.79198161     0.14600
H636        H  0.68260938  0.02534609  0.86445311     0.15200
C637        C  0.84327088  0.50273258  0.67238008    -0.14400
C638        C  0.83374534  0.47533245  0.71181755    -0.29600
H639        H  0.81202374  0.03896549  0.64870757     0.14600
H640        H  0.85704930  0.44956701  0.72355732     0.15200
C641        C  0.81771171  0.47502105  0.83032164    -0.14400
C642        C  0.85897682  0.49278443  0.82573552    -0.29600
H643        H  0.80877478  0.46022082  0.86716387     0.14600
H644        H  0.87190371  0.01416829  0.78482216     0.15200
C645        C  0.00683174  0.14917031  0.66078348    -0.14400
C646        C  0.98652802  0.15622503  0.70607590    -0.29600
H647        H  0.45667666  0.19993008  0.65207500     0.14600
H648        H  0.96496609  0.13077499  0.72249778     0.15200
C649        C  0.99344733  0.16400642  0.82362788    -0.14400
C650        C  0.50166833  0.13709954  0.81802626    -0.29600
H651        H  0.53894340  0.18322058  0.85969755     0.14600
H652        H  0.02754800  0.11390681  0.78112254     0.15200
C653        C  0.99719790  0.32380240  0.69644254    -0.14400
C654        C  0.97725868  0.32707829  0.65031748    -0.29600
H655        H  0.52090833  0.37166942  0.72182943     0.14600
H656        H  0.95960511  0.29871246  0.63424642     0.15200
C657        C  0.00216998  0.32715919  0.80960283    -0.14400
C658        C  0.97779701  0.33371526  0.85216412    -0.29600
H659        H  0.02497256  0.35294677  0.79652294     0.14600
H660        H  0.95560210  0.30754602  0.86581854     0.15200
O661        O  0.48704001  0.88570440  0.43337310    -0.73300
O662        O  0.50018431  0.93301426  0.36614315    -0.52200
C663        C  0.98858352  0.87213240  0.38133107     0.80500
O664        O  0.86641401  0.00969971  0.07939503    -0.57900
O665        O  0.91575924  0.00490906  0.14635756    -0.50900
C666        C  0.87606898  0.00889411  0.12764587     0.72500
O667        O  0.86870872  0.51837631  0.41761514    -0.72400
O668        O  0.92199413  0.51326323  0.35488801    -0.53000
C669        C  0.89531767  0.99389026  0.35975887     0.78500
O670        O  0.98778935  0.87769754  0.10366385    -0.57600
O671        O  0.98449849  0.93589423  0.16018046    -0.50700
C672        C  0.98620828  0.89410325  0.14940623     0.75100
Zr673      Zr  0.49539770  0.92308021  0.51532686     2.54700
O674        O  0.92358657  0.84897486  0.52337623    -0.78100
O675        O  0.55735380  0.85779884  0.01472608    -0.91600
Zr676      Zr  0.89795971  0.49928472  0.50169916     2.64700
O677        O  0.84444574  0.94190941  0.49309572    -0.96500
O678        O  0.85650169  0.56344909  0.99396950    -0.78600
O679        O  0.94783565  0.94472536  0.45302546    -0.81900
O680        O  0.94176153  0.95343220  0.05585557    -2.16600
O681        O  0.61182485  0.00048179  0.10342883    -0.65300
O682        O  0.55397964  0.01198222  0.15900751    -0.49900
C683        C  0.61054852  0.49908641  0.13168151     0.73500
O684        O  0.51141949  0.62346258  0.41652898    -0.58200
O685        O  0.50824452  0.56884575  0.35514977    -0.50200
C686        C  0.51167205  0.60970987  0.36937629     0.75300
O687        O  0.02448160  0.62439812  0.06945425    -0.69600
O688        O  0.01426482  0.57782500  0.13816157    -0.48300
C689        C  0.51104655  0.62658376  0.13555310     0.76600
O690        O  0.61747257  0.49168041  0.41358297    -0.65000
O691        O  0.56198978  0.49065355  0.35312342    -0.52100
C692        C  0.60319877  0.49108132  0.36645770     0.75000
Zr693      Zr  0.58729255  0.00350503  0.01399559     2.77500
O694        O  0.64906532  0.53750736  0.50821578    -0.95700
O695        O  0.64151817  0.94316445  0.01304488    -0.76500
Zr696      Zr  0.01348865  0.58489298  0.98979990     2.70100
O697        O  0.55411952  0.66984682  0.99691784    -0.77800
O698        O  0.94330100  0.64315137  0.52278157    -0.96900
Zr699      Zr  0.49385331  0.50013114  0.40110346     2.21500
Zr700      Zr  0.98919972  0.00131419  0.10527461     2.11100
O701        O  0.54842295  0.56368803  0.05128772    -2.45500
O702        O  0.54756845  0.53961181  0.45180886    -0.77600
O703        O  0.53822356  0.96004139  0.06445271    -0.69800
O704        O  0.94814742  0.54759668  0.45891688    -2.30700
O705        O  0.54598737  0.96518220  0.46466523    -2.26900
O706        O  0.96137784  0.55032383  0.04625260    -0.71500
H707        H  0.92092254  0.93785111  0.07785806     0.80500
H708        H  0.93152532  0.56993963  0.44029165     0.81600
H709        H  0.56814051  0.58095862  0.07294971     0.83800
H710        H  0.56601451  0.94562757  0.44627397     0.81400
H711        H  0.85044187  0.58129922  0.49484787     0.44400
H712        H  0.93478406  0.63460050  0.96743822     0.43400
H713        H  0.56726512  0.66617247  0.50455321     0.43100
H714        H  0.67627250  0.56087351  0.99796233     0.41000
H715        H  0.66766070  0.95508505  0.03190639     0.44200
H716        H  0.54732470  0.84588229  0.53813991     0.38900
H717        H  0.90666691  0.85113416  0.49070034     0.45100
H718        H  0.81887855  0.95593054  0.97882924     0.41500
H719        H  0.63997581  0.59792977  0.99141122     0.46400
H720        H  0.58136788  0.88509744  0.53097842     0.45100
H721        H  0.85308716  0.92179563  0.46454908     0.45200
H722        H  0.95297681  0.65391741  0.01938151     0.45600
C723        C  0.00800236  0.78586563  0.27449166     0.04300
C724        C  0.00764052  0.78403761  0.22014554     0.04300
C725        C  0.00789141  0.74247469  0.19572100    -0.16200
C726        C  0.00924867  0.70244585  0.22365462     0.04300
C727        C  0.00982518  0.70365563  0.27772516     0.04300
C728        C  0.01003487  0.74551314  0.30248880    -0.16200
H729        H  0.01359059  0.74696939  0.34393766     0.06300
H730        H  0.00595094  0.74141887  0.15400585     0.06300
C731        C  0.78338560  0.98722655  0.28623854     0.04300
C732        C  0.78716852  0.98803865  0.23182733     0.04300
C733        C  0.74779089  0.98703489  0.20222454    -0.16200
C734        C  0.70502220  0.98765893  0.22453733     0.04300
C735        C  0.70125409  0.98989126  0.27881106     0.04300
C736        C  0.74057786  0.98854917  0.30850095    -0.16200
H737        H  0.73777546  0.98760674  0.35016406     0.06300
H738        H  0.75047741  0.98511056  0.16059823     0.06300
C739        C  0.66693255  0.98442383  0.18786671    -0.14400
C740        C  0.62723126  0.00496568  0.19260102    -0.29600
H741        H  0.63410334  0.53819747  0.22312879     0.14600
H742        H  0.61865023  0.02364558  0.22689131     0.15200
C743        C  0.65754962  0.99084388  0.30631222    -0.14600
C744        C  0.63592673  0.49037780  0.32374083    -0.29600
H745        H  0.63074821  0.96896012  0.29377243     0.14600
H746        H  0.62697347  0.47191429  0.28934196     0.15200
C747        C  0.83753206  0.01328893  0.16252382    -0.14400
C748        C  0.83072451  0.98719799  0.20399727    -0.29600
H749        H  0.87152770  0.54069821  0.21295209     0.14600
H750        H  0.85633383  0.96381124  0.21598632     0.15200
C751        C  0.82112554  0.98275266  0.32326884    -0.14400
C752        C  0.86345235  0.99670963  0.31665145    -0.29600
H753        H  0.81245701  0.96859939  0.36058106     0.14600
H754        H  0.82328239  0.55705181  0.34618064     0.15200
C755        C  0.02954448  0.65461983  0.15095350    -0.14400
C756        C  0.00801818  0.65955235  0.19561597    -0.29600
H757        H  0.54569311  0.68604765  0.16092893     0.14600
H758        H  0.98792405  0.63236509  0.21082575     0.15200
C759        C  0.01198606  0.66127425  0.30791829    -0.14400
C760        C  0.51552936  0.64327594  0.32814840    -0.29600
H761        H  0.47928248  0.69102958  0.36907212     0.14600
H762        H  0.97847737  0.68655067  0.37262590     0.15200
C763        C  0.00919576  0.82321502  0.18546112    -0.14400
C764        C  0.98693736  0.86169162  0.19198819    -0.29600
H765        H  0.52803770  0.82415117  0.15572926     0.14600
H766        H  0.96801030  0.86862037  0.22665992     0.15200
C767        C  0.00857493  0.82887813  0.30301171    -0.14400
C768        C  0.98505779  0.83354325  0.34665344    -0.29600
H769        H  0.02875450  0.85633936  0.28870748     0.14600
H770        H  0.96489698  0.80578217  0.36031198     0.15200
O771        O  0.49138787  0.87242667  0.93091287    -0.73300
O772        O  0.50377546  0.92121623  0.86468128    -0.52200
C773        C  0.98695116  0.87128176  0.88333614     0.80500
O774        O  0.86633531  0.01137472  0.57759809    -0.57900
O775        O  0.91504881  0.00428923  0.64486125    -0.50900
C776        C  0.87583341  0.01023583  0.62592913     0.72500
O777        O  0.87819680  0.49518781  0.91516720    -0.72400
O778        O  0.93359600  0.48933709  0.85486670    -0.53000
C779        C  0.89355039  0.99139693  0.86138888     0.78500
O780        O  0.99116090  0.87361931  0.60131172    -0.57600
O781        O  0.98211640  0.93133676  0.65762599    -0.50700
C782        C  0.98731253  0.88971991  0.64708822     0.75100
Zr783      Zr  0.49537816  0.91014840  0.01396342     2.54700
O784        O  0.92293511  0.85251958  0.02445927    -0.78100
O785        O  0.55634708  0.86955439  0.51364632    -0.91600
Zr786      Zr  0.90989736  0.50288323  0.00256055     2.64700
O787        O  0.84154048  0.94553166  0.00384013    -0.96500
O788        O  0.83708076  0.55276428  0.50635405    -0.78600
O789        O  0.94728119  0.94466853  0.95472264    -0.81900
O790        O  0.93997657  0.95104696  0.55416573    -2.16600
O791        O  0.61125892  0.01474192  0.60388495    -0.65300
O792        O  0.55416571  0.02391717  0.66102782    -0.49900
C793        C  0.60061424  0.47718497  0.63662745     0.73500
O794        O  0.49516622  0.64275921  0.91788954    -0.58200
O795        O  0.50188568  0.59062391  0.85428853    -0.50200
C796        C  0.49752727  0.63104520  0.87045615     0.75300
O797        O  0.99838409  0.60668120  0.60509859    -0.69600
O798        O  0.98755484  0.54740779  0.65888292    -0.48300
C799        C  0.50309867  0.60701340  0.63779380     0.76600
O800        O  0.62437337  0.52547829  0.91536048    -0.65000
O801        O  0.57101558  0.51671931  0.85336308    -0.52100
C802        C  0.61178655  0.52176900  0.86838722     0.75000
Zr803      Zr  0.58673382  0.01798981  0.51433682     2.77500
O804        O  0.64897864  0.57303619  0.01418268    -0.95700
O805        O  0.64609989  0.96277845  0.51639082    -0.76500
Zr806      Zr  0.99823880  0.58378874  0.51540972     2.70100
O807        O  0.57715673  0.63470099  0.50493986    -0.77800
O808        O  0.96193658  0.64735635  0.98346319    -0.96900
Zr809      Zr  0.50004628  0.51937446  0.90046266     2.21500
Zr810      Zr  0.98775443  0.99810296  0.60426151     2.11100
O811        O  0.54664211  0.53785640  0.55386738    -2.45500
O812        O  0.54749456  0.56535610  0.95119504    -0.77600
O813        O  0.53846292  0.97336576  0.56477138    -0.69800
O814        O  0.96061895  0.53994297  0.94632705    -2.30700
O815        O  0.54578014  0.95251420  0.96320915    -2.26900
O816        O  0.94658413  0.53727108  0.55852652    -0.71500
H817        H  0.91870787  0.93550291  0.57566180     0.80500
H818        H  0.94412675  0.55796363  0.92208316     0.81600
H819        H  0.56701228  0.55278573  0.57701965     0.83800
H820        H  0.56575090  0.93292306  0.94479632     0.81400
H821        H  0.82703665  0.54843094  0.99409919     0.44400
H822        H  0.92021425  0.63105343  0.54626211     0.43400
H823        H  0.58090250  0.65811769  0.01462971     0.43100
H824        H  0.64691798  0.55060782  0.54314314     0.41000
H825        H  0.67343449  0.98019719  0.52393275     0.44200
H826        H  0.54780685  0.83375056  0.03844731     0.38900
H827        H  0.93533519  0.82362358  0.03599161     0.45100
H828        H  0.81785371  0.95785113  0.47998155     0.41500
H829        H  0.67570925  0.51808555  0.50968559     0.46400
H830        H  0.58138619  0.87358334  0.03354151     0.45100
H831        H  0.85336978  0.91764914  0.98876393     0.45200
H832        H  0.95833594  0.66682608  0.54295888     0.45600
C833        C  0.00276915  0.78308471  0.77522905     0.04300
C834        C  0.01164375  0.78128195  0.72171729     0.04300
C835        C  0.01764171  0.73954277  0.69806054    -0.16200
C836        C  0.01227093  0.69892636  0.72456825     0.04300
C837        C  0.00200851  0.70031200  0.77797257     0.04300
C838        C  0.99781477  0.74233728  0.80211148    -0.16200
H839        H  0.99265190  0.74290630  0.84338656     0.06300
H840        H  0.02505104  0.73865509  0.65711854     0.06300
C841        C  0.78371534  0.98219087  0.78384563     0.04300
C842        C  0.78765572  0.98970524  0.73009158     0.04300
C843        C  0.74832598  0.99306975  0.70042013    -0.16200
C844        C  0.70554893  0.99210950  0.72245600     0.04300
C845        C  0.70173860  0.98680250  0.77632757     0.04300
C846        C  0.74084348  0.98036463  0.80559450    -0.16200
H847        H  0.73784186  0.97374575  0.84654352     0.06300
H848        H  0.75083260  0.99564183  0.65885437     0.06300
C849        C  0.66739781  0.99394443  0.68566214    -0.14400
C850        C  0.62825057  0.01520528  0.69283871    -0.29600
H851        H  0.68147381  0.51131117  0.64797447     0.14600
H852        H  0.62041661  0.03128179  0.72912542     0.15200
C853        C  0.65811673  0.98625160  0.80360418    -0.14600
C854        C  0.64842718  0.52284856  0.83076012    -0.29600
H855        H  0.63008337  0.96806352  0.78734721     0.14600
H856        H  0.67554341  0.54609355  0.83834276     0.15200
C857        C  0.83793267  0.01605800  0.66106621    -0.14400
C858        C  0.83127841  0.98999520  0.70259353    -0.29600
H859        H  0.81901325  0.52809469  0.66187602     0.14600
H860        H  0.85698348  0.96661204  0.71434386     0.15200
C861        C  0.82147775  0.97518997  0.82059396    -0.14400
C862        C  0.86212031  0.99410002  0.81762131    -0.29600
H863        H  0.81376228  0.95638231  0.85534963     0.14600
H864        H  0.86914885  0.50917034  0.79048417     0.15200
C865        C  0.99206227  0.62118835  0.69379112    -0.14400
C866        C  0.01784550  0.65808869  0.69229931    -0.29600
H867        H  0.48485916  0.63312613  0.71436200     0.14600
H868        H  0.04098423  0.66129522  0.66017098     0.15200
C869        C  0.99552262  0.66095856  0.81245626    -0.14400
C870        C  0.49289752  0.66809729  0.83382810    -0.29600
H871        H  0.54104622  0.64783324  0.77951831     0.14600
H872        H  0.04193254  0.61514632  0.78048406     0.15200
C873        C  0.01465644  0.82089552  0.68708515    -0.14400
C874        C  0.98865790  0.85745572  0.69021467    -0.29600
H875        H  0.54396354  0.84163321  0.64946682     0.14600
H876        H  0.96647010  0.86265422  0.72265363     0.15200
C877        C  0.00369432  0.82637613  0.80435827    -0.14400
C878        C  0.98116786  0.83242725  0.84873923    -0.29600
H879        H  0.02496963  0.85307714  0.79024814     0.14600
H880        H  0.95966115  0.80605876  0.86305900     0.15200
loop_ 
_geom_bond_atom_site_label_1 
_geom_bond_atom_site_label_2 
_geom_bond_distance 
_geom_bond_site_symmetry_2 
_ccdc_geom_bond_type 
O1          Zr13   2.426       .  S
O1          C443   1.286       .  A
O2         Zr259   2.452       .  S
O2          C443   1.290       .  A
C3          O441   1.282       .  A
C3          O442   1.287       .  A
C3          C108   1.466       .  S
O4         Zr346   2.462       .  S
O4            C6   1.293       .  A
O5          Zr40   2.409       .  S
O5            C6   1.283       .  A
C6           C87   1.475       .  S
O7          Zr16   2.447       .  S
O7          C229   1.290       .  A
O8         Zr479   2.425       .  S
O8          C229   1.286       .  A
C9          O227   1.282       .  A
C9          O228   1.289       .  A
C9           C92   1.466       .  S
O10        Zr563   2.455       .  S
O10          C12   1.292       .  A
O11         Zr40   2.416       .  S
O11          C12   1.284       .  A
C12         C104   1.474       .  S
Zr13        O560   2.418       .  S
Zr13         O45   2.367   1_655  S
Zr13        O459   2.368       .  S
Zr13        O570   2.372       .  S
Zr13        O153   2.379   1_655  S
Zr13        O454   2.437       .  S
Zr13        O125   2.435   1_655  S
O14        Zr453   2.435       .  S
O14          H57   0.990       .  S
O15        Zr123   2.434   1_455  S
O15         H166   0.990       .  S
O15         H170   0.990       .  S
Zr16        O334   2.427       .  S
Zr16         O44   2.362       .  S
Zr16        O350   2.373   1_545  S
Zr16        O239   2.364   1_545  S
Zr16        O156   2.372       .  S
Zr16        O237   2.433   1_545  S
Zr16        O128   2.435       .  S
O17        Zr236   2.435       .  S
O17          H61   0.990       .  S
O17         H168   0.989       .  S
O18        Zr126   2.434       .  S
O18         H161   0.990       .  S
O19        Zr453   2.370       .  S
O19        Zr236   2.372       .  S
O19        Zr699   2.380       .  S
O20         Zr40   2.400       .  S
O20        Zr563   2.369       .  S
O20        Zr346   2.370       .  S
O20          H47   0.966       .  S
O21         Zr33   2.425       .  S
O21         C243   1.283       .  A
O22        Zr480   2.429       .  S
O22         C243   1.286       .  A
C23         O241   1.287       .  A
C23         O242   1.289   1_565  A
C23         C300   1.484       .  S
O24        Zr586   2.445       .  S
O24          C26   1.290       .  A
O25         Zr39   2.451   1_545  S
O25          C26   1.290       .  A
C26         C100   1.487       .  S
O27         Zr36   2.430   1_554  S
O27         C469   1.285       .  A
O28        Zr260   2.445       .  S
O28         C469   1.289       .  A
C29         O467   1.286       .  A
C29         O468   1.288       .  A
C29         C535   1.472       .  S
O30        Zr363   2.425       .  S
O30          C32   1.284       .  A
O31         Zr39   2.439       .  S
O31          C32   1.288       .  A
C32          C84   1.468       .  S
Zr33        O360   2.416   1_554  S
Zr33         O43   2.354       .  S
Zr33        O261   2.363       .  S
Zr33        O372   2.367   1_554  S
Zr33        O155   2.367   1_554  S
Zr33         O35   2.436   1_554  S
Zr33        O364   2.439       .  S
O34        Zr363   2.438   1_545  S
O34         H164   0.990       .  S
O34         H169   0.990       .  S
O35          H55   0.990   1_556  S
Zr36        O574   2.435       .  S
Zr36         O46   2.371   1_556  S
Zr36        O592   2.367       .  S
Zr36        O481   2.370   1_556  S
Zr36        O154   2.363       .  S
Zr36        O477   2.435       .  S
Zr36        O148   2.436       .  S
O37        Zr476   2.437       .  S
O37         H163   0.990   1_556  S
O38        Zr146   2.437       .  S
O38         H162   0.990       .  S
O38         H172   0.990       .  S
Zr39        O222   2.446   1_455  S
Zr39        O448   2.425   1_455  S
Zr39         O42   2.383   1_565  S
Zr39        O679   2.392   1_455  S
Zr39        O484   2.387   1_465  S
Zr39        O265   2.397       .  S
Zr40        O462   2.448       .  S
Zr40        O248   2.442       .  S
Zr40        O701   2.381       .  S
Zr40        O483   2.381       .  S
Zr40        O266   2.384       .  S
O41        Zr253   2.374   1_545  S
O41        Zr476   2.369   1_554  S
O41        Zr700   2.391   1_455  S
O41          H49   0.966       .  S
O42        Zr363   2.372   1_545  S
O42        Zr586   2.362       .  S
O43        Zr123   2.357   1_455  S
O43        Zr480   2.376       .  S
O44        Zr146   2.368       .  S
O44        Zr479   2.396       .  S
O44          H48   0.966       .  S
O45        Zr143   2.376       .  S
O45        Zr259   2.393   1_455  S
O45          H50   0.966       .  S
O46        Zr126   2.378   1_554  S
O46        Zr260   2.389       .  S
H51         O128   0.990       .  S
H52         O148   0.990   1_554  S
H53         O147   0.990       .  S
H54         O144   0.990   1_556  S
H56         O125   0.990       .  S
H58         O127   0.990   1_554  S
H59         O144   0.990       .  S
H60         O125   0.990       .  S
H62         O148   0.990       .  S
C63         C107   1.486       .  S
C63          C64   1.415       .  A
C63          C68   1.407       .  A
C64         C103   1.493       .  S
C64          C65   1.404       .  A
C65          C66   1.412       .  A
C65          H70   1.085       .  S
C66          C96   1.490       .  S
C66          C67   1.419       .  A
C67          C99   1.493       .  S
C67          C68   1.403       .  A
C68          H69   1.085       .  S
C71          C91   1.485       .  S
C71          C72   1.414       .  A
C71          C76   1.413       .  A
C72          C88   1.492       .  S
C72          C73   1.398       .  A
C73          C74   1.410       .  A
C73          H78   1.085       .  S
C74          C79   1.482       .  S
C74          C75   1.417       .  A
C75          C83   1.500       .  S
C75          C76   1.405       .  A
C76          H77   1.085       .  S
C79          C80   1.341       .  D
C79         H301   1.086       .  S
C80         C243   1.462       .  S
C80          H82   1.088       .  S
H81         C299   1.087       .  S
C83         C304   1.346       .  D
C83          H85   1.087       .  S
C84         C303   1.343       .  D
C84          H86   1.087   1_565  S
C87          C88   1.342       .  D
C87         H309   1.083       .  S
C88          H90   1.088       .  S
H89         C307   1.086       .  S
C91          C92   1.340       .  D
C91          H93   1.086       .  S
C92         H314   1.088       .  S
H94         C312   1.082   1_545  S
C95         C469   1.470       .  S
C95          C96   1.346       .  D
C95         H537   1.087       .  S
C96          H98   1.086       .  S
H97         C535   1.085       .  S
C99         C540   1.343       .  D
C99         H541   1.088       .  S
C100        C539   1.350       .  D
C100        H542   1.083   1_455  S
H101        C539   1.088       .  S
H102        C540   1.081       .  S
C103        C104   1.344       .  D
C103        H545   1.088       .  S
C104        H106   1.082       .  S
H105        C543   1.088       .  S
C107        C108   1.342       .  D
C107        H109   1.087       .  S
C108        H110   1.088       .  S
O111       Zr123   2.420   1_556  S
O111        C553   1.283       .  A
O112       Zr369   2.431   1_655  S
O112        C553   1.289       .  A
C113        O551   1.290       .  A
C113        O552   1.284       .  A
C113        C218   1.468       .  S
O114       Zr236   2.421       .  S
O114        C116   1.283       .  A
O115       Zr150   2.451       .  S
O115        C116   1.290       .  A
C116        C197   1.472       .  S
O117       Zr126   2.452   1_565  S
O117        C339   1.291       .  A
O118       Zr589   2.434       .  S
O118        C339   1.287       .  A
C119        O337   1.294       .  A
C119        O338   1.286       .  A
C119        C202   1.482       .  S
O120       Zr453   2.429       .  S
O120        C122   1.284       .  A
O121       Zr150   2.446       .  S
O121        C122   1.290       .  A
C122        C214   1.476       .  S
Zr123       O450   2.439       .  S
Zr123       O569   2.367   1_554  S
Zr123       O460   2.366       .  S
Zr123       O155   2.381   1_654  S
Zr123       O564   2.434       .  S
O124       Zr563   2.436       .  S
O124        H167   0.990   1_554  S
Zr126       O224   2.443   1_556  S
Zr126       O240   2.367   1_546  S
Zr126       O349   2.368   1_545  S
Zr126       O154   2.367       .  S
Zr126       O347   2.437   1_545  S
O127       Zr346   2.437   1_556  S
O127        H171   0.990   1_556  S
O129       Zr563   2.368   1_556  S
O129       Zr346   2.365   1_556  S
O129       Zr809   2.394       .  S
O130       Zr453   2.367       .  S
O130       Zr236   2.370       .  S
O130       Zr150   2.385       .  S
O130        H157   0.966       .  S
O131       Zr143   2.470       .  S
O131        C353   1.294       .  A
O132       Zr590   2.423   1_455  S
O132        C353   1.287       .  A
C133        O351   1.288       .  A
C133        O352   1.286       .  A
C133        C410   1.474       .  S
O134       Zr476   2.428       .  S
O134        C136   1.287       .  A
O135       Zr149   2.434   1_545  S
O135        C136   1.287       .  A
C136        C210   1.479       .  S
O137       Zr146   2.440       .  S
O137        C579   1.287       .  A
O138       Zr370   2.436       .  S
O138        C579   1.289       .  A
C139        O577   1.283   1_655  A
C139        O578   1.291       .  A
C139        C645   1.470   1_655  S
O140       Zr253   2.427   1_556  S
O140        C142   1.284       .  A
O141       Zr149   2.430       .  S
O141        C142   1.287       .  A
C142        C194   1.463       .  S
Zr143       O250   2.473       .  S
Zr143       O371   2.372       .  S
Zr143       O262   2.380       .  S
Zr143       O153   2.382       .  S
Zr143       O254   2.435       .  S
Zr143       O145   2.435       .  S
O144       Zr253   2.437   1_545  S
O145        H165   0.990       .  S
Zr146       O464   2.449       .  S
Zr146       O482   2.369       .  S
Zr146       O591   2.373       .  S
Zr146       O156   2.372       .  S
Zr146       O587   2.434       .  S
O147       Zr586   2.433       .  S
Zr149       O332   2.454   1_455  S
Zr149       O558   2.427   1_455  S
Zr149       O789   2.387   1_455  S
Zr149       O152   2.388   1_565  S
Zr149       O594   2.392   1_465  S
Zr149       O375   2.387       .  S
Zr150       O572   2.428       .  S
Zr150       O358   2.438       .  S
Zr150       O811   2.401       .  S
Zr150       O593   2.387       .  S
Zr150       O376   2.388       .  S
O151       Zr363   2.363   1_545  S
O151       Zr586   2.373       .  S
O151       Zr810   2.393   1_445  S
O151        H159   0.966       .  S
O152       Zr253   2.369   1_546  S
O152       Zr476   2.372       .  S
O153       Zr590   2.395   1_455  S
O154       Zr589   2.391   1_545  S
O154        H158   0.966       .  S
O155       Zr369   2.396       .  S
O155        H160   0.966       .  S
O156       Zr370   2.393       .  S
C173        C217   1.482       .  S
C173        C174   1.413       .  A
C173        C178   1.401       .  A
C174        C213   1.498       .  S
C174        C175   1.412       .  A
C175        C176   1.416       .  A
C175        H180   1.081       .  S
C176        C206   1.491       .  S
C176        C177   1.419       .  A
C177        C209   1.498       .  S
C177        C178   1.404       .  A
C178        H179   1.086       .  S
C181        C201   1.497       .  S
C181        C182   1.415       .  A
C181        C186   1.401       .  A
C182        C198   1.490       .  S
C182        C183   1.415       .  A
C183        C184   1.408       .  A
C183        H188   1.084       .  S
C184        C189   1.506       .  S
C184        C185   1.419       .  A
C185        C193   1.483       .  S
C185        C186   1.411       .  A
C186        H187   1.085       .  S
C189        C190   1.349       .  D
C189        H411   1.087       .  S
C190        C353   1.485       .  S
C190        H192   1.079       .  S
H191        C409   1.088       .  S
C193        C414   1.340       .  D
C193        H195   1.086       .  S
C194        C413   1.343       .  D
C194        H196   1.085       .  S
C197        C198   1.343       .  D
C197        H419   1.088       .  S
C198        H200   1.086       .  S
H199        C417   1.086       .  S
C201        C202   1.346       .  D
C201        H203   1.088       .  S
C202        H424   1.083       .  S
H204        C422   1.082   1_545  S
C205        C579   1.470       .  S
C205        C206   1.346       .  D
C205        H647   1.086       .  S
C206        H208   1.086       .  S
H207        C645   1.087       .  S
C209        C650   1.349       .  D
C209        H651   1.088       .  S
C210        C649   1.348   1_455  D
C210        H652   1.084       .  S
H211        C649   1.088       .  S
H212        C650   1.082       .  S
C213        C214   1.346       .  D
C213        H655   1.087       .  S
C214        H216   1.086       .  S
H215        C653   1.084   1_455  S
C217        C218   1.341       .  D
C217        H219   1.089       .  S
C218        H220   1.084       .  S
O221       Zr233   2.422       .  S
O221        C663   1.283       .  A
O222        C663   1.290       .  A
C223        O661   1.283       .  A
C223        O662   1.290       .  A
C223        C328   1.471       .  S
O224        C226   1.288       .  A
O225       Zr260   2.427       .  S
O225        C226   1.286       .  A
C226        C307   1.469       .  S
O227       Zr236   2.418       .  S
O228       Zr699   2.448       .  S
C229        C312   1.475   1_545  S
O230       Zr783   2.447       .  S
O230        C232   1.291       .  A
O231       Zr260   2.424   1_565  S
O231        C232   1.285       .  A
C232        C324   1.477       .  S
Zr233       O780   2.436       .  S
Zr233       O679   2.371       .  S
Zr233       O790   2.369       .  S
Zr233       O373   2.362   1_655  S
Zr233       O265   2.378   1_655  S
Zr233       O674   2.437       .  S
Zr233       O345   2.437   1_655  S
O234       Zr673   2.437       .  S
O234        H277   0.990       .  S
O235       Zr343   2.436   1_455  S
O235        H386   0.990       .  S
O235        H390   0.990       .  S
Zr236       O264   2.363       .  S
Zr236       O376   2.364       .  S
Zr236       O348   2.435       .  S
O237        H388   0.990       .  S
O237        H281   0.990       .  S
O238       Zr346   2.433       .  S
O238        H381   0.990   1_554  S
O239       Zr673   2.360       .  S
O239       Zr479   2.378   1_565  S
O240       Zr783   2.366       .  S
O240       Zr260   2.391   1_565  S
O240        H267   0.966       .  S
O241       Zr253   2.432       .  S
O242       Zr700   2.447   1_455  S
O244       Zr806   2.411       .  S
O244        C246   1.281       .  A
O245       Zr259   2.459       .  S
O245        C246   1.293       .  A
C246        C320   1.471       .  S
O247       Zr256   2.423       .  S
O247        C689   1.284       .  A
O248        C689   1.288       .  A
C249        O687   1.280       .  A
C249        O688   1.288       .  A
C249        C755   1.456       .  S
O250        C252   1.295       .  A
O251       Zr259   2.426   1_455  S
O251        C252   1.287       .  A
C252        C304   1.481       .  S
Zr253       O375   2.375   1_554  S
Zr253       O263   2.365       .  S
Zr253       O255   2.434       .  S
O254        H384   0.990       .  S
O254        H389   0.990       .  S
O255        H275   0.990       .  S
Zr256       O794   2.417   1_554  S
Zr256       O812   2.370   1_554  S
Zr256       O701   2.373       .  S
Zr256       O266   2.362       .  S
Zr256       O374   2.371   1_554  S
Zr256       O697   2.433   1_554  S
Zr256       O368   2.435       .  S
O257       Zr696   2.435       .  S
O257        H383   0.990       .  S
O258       Zr366   2.436       .  S
O258        H382   0.990       .  S
O258        H392   0.990       .  S
Zr259       O668   2.441       .  S
Zr259       O459   2.387       .  S
Zr259       O262   2.396   1_655  S
Zr259       O704   2.386       .  S
Zr260       O682   2.430       .  S
Zr260       O481   2.383       .  S
Zr260       O703   2.382   1_545  S
O261       Zr696   2.376   1_554  S
O261       Zr480   2.388       .  S
O261        H269   0.966       .  S
O262       Zr806   2.373   1_455  S
O263       Zr343   2.371   1_455  S
O263       Zr700   2.387   1_465  S
O264       Zr366   2.369       .  S
O264       Zr699   2.391       .  S
O264        H268   0.966       .  S
O265       Zr363   2.372       .  S
O265        H270   0.966       .  S
O266       Zr346   2.380       .  S
H271        O348   0.990       .  S
H272        O368   0.990   1_556  S
H273        O367   0.990       .  S
H274        O364   0.990       .  S
H276        O345   0.990       .  S
H278        O347   0.990   1_554  S
H279        O364   0.990       .  S
H280        O345   0.990       .  S
H282        O368   0.990   1_556  S
C283        C327   1.493       .  S
C283        C284   1.414       .  A
C283        C288   1.412       .  A
C284        C323   1.487       .  S
C284        C285   1.401       .  A
C285        C286   1.408       .  A
C285        H290   1.085       .  S
C286        C316   1.491       .  S
C286        C287   1.415       .  A
C287        C319   1.488       .  S
C287        C288   1.404       .  A
C288        H289   1.084       .  S
C291        C311   1.494       .  S
C291        C292   1.418       .  A
C291        C296   1.405       .  A
C292        C308   1.492       .  S
C292        C293   1.411       .  A
C293        C294   1.404       .  A
C293        H298   1.084       .  S
C294        C299   1.490       .  S
C294        C295   1.412       .  A
C295        C303   1.491       .  S
C295        C296   1.411       .  A
C296        H297   1.084       .  S
C299        C300   1.350       .  D
C300        H302   1.084   1_565  S
C303        H305   1.086       .  S
C304        H306   1.082       .  S
C307        C308   1.347   1_545  D
C308        H310   1.087       .  S
C311        C312   1.344       .  D
C311        H313   1.088       .  S
C315        C689   1.466       .  S
C315        C316   1.343       .  D
C315        H757   1.087       .  S
C316        H318   1.086       .  S
H317        C755   1.087       .  S
C319        C760   1.343       .  D
C319        H761   1.088       .  S
C320        C759   1.337   1_655  D
C320        H762   1.085       .  S
H321        C759   1.086       .  S
H322        C760   1.084       .  S
C323        C324   1.344       .  D
C323        H765   1.088       .  S
C324        H326   1.084       .  S
H325        C763   1.089       .  S
C327        C328   1.343       .  D
C327        H329   1.086       .  S
C328        H330   1.087       .  S
O331       Zr343   2.435   1_556  S
O331        C773   1.286       .  A
O332        C773   1.292       .  A
C333        O771   1.287       .  A
C333        O772   1.292       .  A
C333        C438   1.482       .  S
O334        C336   1.285       .  A
O335       Zr370   2.440       .  S
O335        C336   1.289       .  A
C336        C417   1.466       .  S
O337       Zr346   2.467   1_556  S
O338       Zr809   2.424       .  S
C339        C422   1.480       .  S
O340       Zr673   2.415       .  S
O340        C342   1.284       .  A
O341       Zr370   2.447   1_565  S
O341        C342   1.289       .  A
C342        C434   1.478       .  S
Zr343       O670   2.421       .  S
Zr343       O789   2.365   1_554  S
Zr343       O680   2.360       .  S
Zr343       O375   2.361   1_654  S
Zr343       O784   2.433       .  S
O344       Zr783   2.434       .  S
O344        H387   0.990       .  S
Zr346       O374   2.372   1_554  S
O347        H391   0.990   1_556  S
O349       Zr783   2.374   1_556  S
O349       Zr589   2.390       .  S
O350       Zr673   2.369       .  S
O350       Zr370   2.388   1_565  S
O350        H377   0.966       .  S
O351       Zr363   2.442       .  S
O352       Zr810   2.430   1_455  S
O354       Zr696   2.430       .  S
O354        C356   1.286       .  A
O355       Zr369   2.448       .  S
O355        C356   1.289       .  A
C356        C430   1.481       .  S
O357       Zr366   2.445       .  S
O357        C799   1.290       .  A
O358        C799   1.289       .  A
C359        O797   1.286       .  A
C359        O798   1.290       .  A
C359        C865   1.483       .  S
O360        C362   1.282       .  A
O361       Zr369   2.445       .  S
O361        C362   1.289       .  A
C362        C414   1.463       .  S
Zr363       O373   2.363       .  S
Zr363       O365   2.435       .  S
O365        H385   0.990       .  S
Zr366       O684   2.451       .  S
Zr366       O702   2.368       .  S
Zr366       O811   2.373       .  S
Zr366       O376   2.373       .  S
Zr366       O807   2.435       .  S
O367       Zr806   2.436   1_455  S
Zr369       O778   2.432   1_455  S
Zr369       O569   2.392   1_455  S
Zr369       O372   2.374       .  S
Zr369       O814   2.391   1_455  S
Zr370       O792   2.437       .  S
Zr370       O591   2.392       .  S
Zr370       O813   2.379   1_545  S
O371       Zr806   2.357   1_455  S
O371       Zr590   2.393   1_455  S
O371        H379   0.965       .  S
O372       Zr696   2.354       .  S
O373       Zr810   2.384   1_455  S
O374       Zr809   2.387       .  S
O374        H378   0.966       .  S
O375        H380   0.966       .  S
C393        C437   1.501       .  S
C393        C394   1.414       .  A
C393        C398   1.412       .  A
C394        C433   1.486       .  S
C394        C395   1.407       .  A
C395        C396   1.404       .  A
C395        H400   1.086       .  S
C396        C426   1.498       .  S
C396        C397   1.416       .  A
C397        C429   1.492       .  S
C397        C398   1.417       .  A
C398        H399   1.082       .  S
C401        C421   1.498       .  S
C401        C402   1.417       .  A
C401        C406   1.405       .  A
C402        C418   1.488       .  S
C402        C403   1.411   1_565  A
C403        C404   1.403       .  A
C403        H408   1.084       .  S
C404        C409   1.492       .  S
C404        C405   1.414   1_545  A
C405        C413   1.488       .  S
C405        C406   1.411       .  A
C406        H407   1.083       .  S
C409        C410   1.346   1_545  D
C410        H412   1.084       .  S
C413        H415   1.087   1_565  S
C414        H416   1.088       .  S
C417        C418   1.344   1_545  D
C418        H420   1.087       .  S
C421        C422   1.347       .  D
C421        H423   1.088       .  S
C425        C799   1.484       .  S
C425        C426   1.350       .  D
C425        H867   1.083       .  S
C426        H428   1.088       .  S
H427        C865   1.084       .  S
C429        C870   1.342       .  D
C429        H871   1.086       .  S
C430        C869   1.348   1_455  D
C430        H872   1.084       .  S
H431        C869   1.088       .  S
H432        C870   1.087       .  S
C433        C434   1.349       .  D
C433        H875   1.088       .  S
C434        H436   1.084       .  S
H435        C873   1.088       .  S
C437        C438   1.348       .  D
C437        H439   1.086       .  S
C438        H440   1.086       .  S
O441       Zr453   2.422       .  S
O442       Zr699   2.438       .  S
C443        C548   1.478       .  S
O444       Zr786   2.465       .  S
O444        C446   1.293       .  A
O445       Zr480   2.429   1_655  S
O445        C446   1.287       .  A
C446        C527   1.484       .  S
O447       Zr456   2.431       .  S
O447        C669   1.287       .  A
O448        C669   1.286       .  A
C449        O667   1.283       .  A
C449        O668   1.288       .  A
C449        C532   1.462       .  S
O450        C452   1.288   1_655  A
O451       Zr480   2.449       .  S
O451        C452   1.290       .  A
C452        C544   1.487       .  S
Zr453       O593   2.368       .  S
Zr453       O485   2.372       .  S
Zr453       O565   2.436       .  S
O454        H497   0.990       .  S
O455       Zr563   2.435   1_556  S
O455        H606   0.990   1_556  S
O455        H610   0.990       .  S
Zr456       O774   2.437   1_565  S
Zr456       O790   2.369       .  S
Zr456       O679   2.369       .  S
Zr456       O484   2.363   1_565  S
Zr456       O596   2.372   1_565  S
Zr456       O677   2.434       .  S
Zr456       O568   2.436   1_565  S
O457       Zr676   2.436       .  S
O457        H608   0.990       .  S
O457        H501   0.990       .  S
O458       Zr566   2.433   1_545  S
O458        H601   0.990       .  S
O459       Zr676   2.368       .  S
O460       Zr786   2.376       .  S
O460       Zr480   2.392   1_655  S
O460        H487   0.966       .  S
O461       Zr473   2.418       .  S
O461        C683   1.283       .  A
O462        C683   1.289       .  A
C463        O681   1.288       .  A
C463        O682   1.286       .  A
C463        C740   1.478       .  S
O464        C466   1.292       .  A
O465       Zr479   2.424       .  S
O465        C466   1.286       .  A
C466        C540   1.477       .  S
O467       Zr476   2.439   1_654  S
O468       Zr700   2.437       .  S
O470       Zr803   2.428       .  S
O470        C472   1.285       .  A
O471       Zr479   2.443       .  S
O471        C472   1.289       .  A
C472        C524   1.472       .  S
Zr473       O800   2.413   1_554  S
Zr473       O701   2.360       .  S
Zr473       O812   2.371   1_554  S
Zr473       O595   2.364   1_554  S
Zr473       O483   2.362       .  S
Zr473       O804   2.433       .  S
Zr473       O475   2.437   1_554  S
O474       Zr803   2.439       .  S
O474        H604   0.989       .  S
O474        H609   0.990       .  S
O475        H495   0.990       .  S
Zr476       O486   2.368   1_456  S
Zr476       O594   2.364   1_455  S
Zr476       O588   2.435   1_455  S
O477        H603   0.990   1_556  S
O478       Zr586   2.435   1_655  S
O478        H602   0.990       .  S
O478        H612   0.990       .  S
Zr479       O662   2.452   1_545  S
Zr479       O482   2.388       .  S
Zr479       O705   2.386   1_545  S
Zr480       O688   2.429       .  S
Zr480       O706   2.395   1_455  S
O481       Zr693   2.366       .  S
O481        H489   0.966       .  S
O482       Zr803   2.367       .  S
O483       Zr563   2.362       .  S
O484       Zr586   2.357   1_655  S
O484        H488   0.965       .  S
O485       Zr583   2.378       .  S
O485       Zr699   2.389       .  S
O485        H490   0.966       .  S
O486       Zr566   2.372   1_544  S
O486       Zr700   2.388       .  S
H491        O568   0.990       .  S
H492        O588   0.990   1_554  S
H493        O587   0.990       .  S
H494        O584   0.990       .  S
H496        O565   0.990       .  S
H498        O567   0.990   1_556  S
H499        O584   0.990   1_556  S
H500        O565   0.990       .  S
H502        O588   0.990       .  S
C503        C547   1.489       .  S
C503        C504   1.419       .  A
C503        C508   1.410       .  A
C504        C543   1.498   1_455  S
C504        C505   1.410   1_455  A
C505        C506   1.416   1_655  A
C505        H510   1.082       .  S
C506        C536   1.497       .  S
C506        C507   1.419       .  A
C507        C539   1.503       .  S
C507        C508   1.407       .  A
C508        H509   1.086       .  S
C511        C531   1.484       .  S
C511        C512   1.415       .  A
C511        C516   1.412       .  A
C512        C528   1.500       .  S
C512        C513   1.406       .  A
C513        C514   1.416       .  A
C513        H518   1.084       .  S
C514        C519   1.490       .  S
C514        C515   1.416       .  A
C515        C523   1.496       .  S
C515        C516   1.400       .  A
C516        H517   1.085       .  S
C519        C520   1.342       .  D
C519        H741   1.086       .  S
C520        C683   1.468       .  S
C520        H522   1.087       .  S
H521        C739   1.088       .  S
C523        C744   1.343       .  D
C523        H525   1.088       .  S
C524        C743   1.345   1_545  D
C524        H526   1.087       .  S
C527        C528   1.349       .  D
C527        H749   1.083       .  S
C528        H530   1.087       .  S
H529        C747   1.087       .  S
C531        C532   1.340       .  D
C531        H533   1.087       .  S
C532        H754   1.088       .  S
H534        C752   1.081   1_545  S
C535        C536   1.348   1_655  D
C536        H538   1.086       .  S
C543        C544   1.350   1_655  D
C544        H546   1.084       .  S
C547        C548   1.347   1_455  D
C547        H549   1.089       .  S
C548        H550   1.084       .  S
O551       Zr563   2.443   1_556  S
O552       Zr809   2.417       .  S
C553        C658   1.463       .  S
O554       Zr676   2.422       .  S
O554        C556   1.283       .  A
O555       Zr590   2.440       .  S
O555        C556   1.288       .  A
C556        C637   1.467       .  S
O557       Zr566   2.449       .  S
O557        C779   1.291       .  A
O558        C779   1.286       .  A
C559        O777   1.294       .  A
C559        O778   1.288       .  A
C559        C642   1.486       .  S
O560        C562   1.282       .  A
O561       Zr590   2.454       .  S
O561        C562   1.293       .  A
C562        C654   1.475       .  S
Zr563       O595   2.378   1_554  S
O564        H607   0.990       .  S
Zr566       O664   2.431   1_566  S
Zr566       O680   2.368   1_556  S
Zr566       O789   2.370       .  S
Zr566       O594   2.363   1_565  S
Zr566       O787   2.434   1_556  S
O567       Zr786   2.436       .  S
O567        H611   0.990       .  S
O569       Zr786   2.368   1_556  S
O570       Zr676   2.361       .  S
O570       Zr590   2.390       .  S
O570        H597   0.966       .  S
O571       Zr583   2.465       .  S
O571        C793   1.293       .  A
O572        C793   1.287       .  A
C573        O791   1.288       .  A
C573        O792   1.287       .  A
C573        C850   1.483       .  S
O574        C576   1.288       .  A
O575       Zr589   2.448   1_545  S
O575        C576   1.290       .  A
C576        C650   1.484       .  S
O577       Zr586   2.418       .  S
O578       Zr810   2.453   1_545  S
O580       Zr693   2.418   1_556  S
O580        C582   1.283       .  A
O581       Zr589   2.444       .  S
O581        C582   1.290   1_565  A
C582        C634   1.467       .  S
Zr583       O690   2.478       .  S
Zr583       O811   2.377       .  S
Zr583       O702   2.366       .  S
Zr583       O593   2.382       .  S
Zr583       O694   2.437       .  S
Zr583       O585   2.435       .  S
O584       Zr693   2.435       .  S
O585        H605   0.990       .  S
Zr586       O596   2.377   1_455  S
Zr589       O772   2.455       .  S
Zr589       O592   2.386   1_565  S
Zr589       O815   2.392       .  S
Zr590       O798   2.453       .  S
Zr590       O816   2.383       .  S
O591       Zr803   2.366       .  S
O591        H599   0.966       .  S
O592       Zr693   2.371   1_556  S
O594        H598   0.966       .  S
O595       Zr809   2.391       .  S
O595        H600   0.966       .  S
O596       Zr810   2.390   1_545  S
C613        C657   1.484       .  S
C613        C614   1.407   1_455  A
C613        C618   1.403       .  A
C614        C653   1.498       .  S
C614        C615   1.412       .  A
C615        C616   1.417       .  A
C615        H620   1.080       .  S
C616        C646   1.493       .  S
C616        C617   1.413       .  A
C617        C649   1.485       .  S
C617        C618   1.402   1_655  A
C618        H619   1.085       .  S
C621        C641   1.505       .  S
C621        C622   1.419       .  A
C621        C626   1.411       .  A
C622        C638   1.489       .  S
C622        C623   1.413       .  A
C623        C624   1.400       .  A
C623        H628   1.085       .  S
C624        C629   1.496       .  S
C624        C625   1.414       .  A
C625        C633   1.487       .  S
C625        C626   1.416       .  A
C626        H627   1.085       .  S
C629        C630   1.344       .  D
C629        H851   1.088       .  S
C630        C793   1.481       .  S
C630        H632   1.082       .  S
H631        C849   1.088       .  S
C633        C854   1.340       .  D
C633        H635   1.084       .  S
C634        C853   1.342   1_545  D
C634        H636   1.088       .  S
C637        C638   1.343       .  D
C637        H859   1.088       .  S
C638        H640   1.086       .  S
H639        C857   1.086       .  S
C641        C642   1.351       .  D
C641        H643   1.087       .  S
C642        H864   1.082       .  S
H644        C862   1.082   1_545  S
C645        C646   1.341   1_455  D
C646        H648   1.086       .  S
C653        C654   1.341       .  D
C654        H656   1.085       .  S
C657        C658   1.339   1_455  D
C657        H659   1.086       .  S
C658        H660   1.087       .  S
O661       Zr673   2.417       .  S
C663        C768   1.470       .  S
O664        C666   1.285       .  A
O665       Zr700   2.448       .  S
O665        C666   1.290       .  A
C666        C747   1.473       .  S
O667       Zr676   2.420       .  S
C669        C752   1.473       .  S
O670        C672   1.286       .  A
O671       Zr700   2.429   1_565  S
O671        C672   1.286       .  A
C672        C764   1.472       .  S
Zr673       O813   2.362       .  S
Zr673       O705   2.369       .  S
Zr673       O785   2.435       .  S
O674        H717   0.990       .  S
O675       Zr783   2.435       .  S
O675        H826   0.990       .  S
O675        H830   0.990       .  S
Zr676       O704   2.363       .  S
Zr676       O816   2.364       .  S
Zr676       O788   2.435       .  S
O677        H828   0.990       .  S
O677        H721   0.990       .  S
O678       Zr786   2.434   1_556  S
O678        H821   0.990       .  S
O680       Zr700   2.392   1_565  S
O680        H707   0.966       .  S
O681       Zr693   2.436       .  S
O684        C686   1.291       .  A
O685       Zr699   2.419       .  S
O685        C686   1.284       .  A
C686        C760   1.473       .  S
O687       Zr696   2.405   1_554  S
O690        C692   1.295       .  A
O691       Zr699   2.409       .  S
O691        C692   1.282       .  A
C692        C744   1.480       .  S
Zr693       O815   2.370   1_544  S
Zr693       O703   2.360   1_545  S
Zr693       O695   2.435   1_545  S
O694        H824   0.990       .  S
O694        H829   0.990       .  S
O695        H715   0.990       .  S
Zr696       O706   2.378   1_456  S
Zr696       O814   2.365   1_455  S
Zr696       O808   2.436   1_455  S
O697        H823   0.990   1_556  S
O698       Zr806   2.435       .  S
O698        H822   0.990       .  S
O698        H832   0.990       .  S
Zr699       O702   2.391       .  S
O701        H709   0.966       .  S
O703       Zr783   2.366       .  S
O704       Zr806   2.361       .  S
O704        H708   0.965       .  S
O705       Zr803   2.378   1_565  S
O705        H710   0.966       .  S
O706       Zr786   2.384       .  S
H711        O788   0.990       .  S
H712        O808   0.990       .  S
H713        O807   0.990       .  S
H714        O804   0.990   1_556  S
H716        O785   0.990       .  S
H718        O787   0.990   1_556  S
H719        O804   0.990   1_556  S
H720        O785   0.990       .  S
H722        O808   0.990   1_554  S
C723        C767   1.488       .  S
C723        C724   1.411       .  A
C723        C728   1.413       .  A
C724        C763   1.481       .  S
C724        C725   1.399       .  A
C725        C726   1.403       .  A
C725        H730   1.084       .  S
C726        C756   1.479       .  S
C726        C727   1.404       .  A
C727        C759   1.495       .  S
C727        C728   1.411       .  A
C728        H729   1.082       .  S
C731        C751   1.490       .  S
C731        C732   1.417       .  A
C731        C736   1.408       .  A
C732        C748   1.492       .  S
C732        C733   1.408       .  A
C733        C734   1.407       .  A
C733        H738   1.085       .  S
C734        C739   1.489       .  S
C734        C735   1.414       .  A
C735        C743   1.492       .  S
C735        C736   1.408       .  A
C736        H737   1.085       .  S
C739        C740   1.347   1_565  D
C740        H742   1.083       .  S
C743        H745   1.086       .  S
C744        H746   1.084       .  S
C747        C748   1.346   1_545  D
C748        H750   1.086       .  S
C751        C752   1.346       .  D
C751        H753   1.088       .  S
C755        C756   1.335       .  D
C756        H758   1.087   1_455  S
C763        C764   1.345   1_455  D
C764        H766   1.084       .  S
C767        C768   1.341   1_455  D
C767        H769   1.086       .  S
C768        H770   1.087       .  S
O771       Zr783   2.437   1_556  S
C773        C878   1.481       .  S
O774        C776   1.286       .  A
O775       Zr810   2.428   1_545  S
O775        C776   1.286       .  A
C776        C857   1.467       .  S
O777       Zr786   2.469   1_556  S
C779        C862   1.478       .  S
O780        C782   1.288       .  A
O781       Zr810   2.440       .  S
O781        C782   1.288       .  A
C782        C874   1.480       .  S
Zr783       O815   2.371   1_554  S
O784        H827   0.990       .  S
Zr786       O814   2.381   1_554  S
O787        H831   0.990   1_554  S
O790       Zr810   2.393       .  S
O790        H817   0.966       .  S
O791       Zr803   2.439       .  S
O794        C796   1.282       .  A
O795       Zr809   2.450       .  S
O795        C796   1.290       .  A
C796        C870   1.469       .  S
O797       Zr806   2.427       .  S
O800        C802   1.281       .  A
O801       Zr809   2.454       .  S
O801        C802   1.291       .  A
C802        C854   1.470       .  S
Zr803       O813   2.364   1_545  S
Zr803       O805   2.434   1_545  S
O805        H825   0.990       .  S
Zr806       O816   2.363       .  S
Zr809       O812   2.377       .  S
O811        H819   0.966       .  S
O814        H818   0.966       .  S
O815        H820   0.966       .  S
C833        C877   1.503       .  S
C833        C834   1.415       .  A
C833        C838   1.415   1_455  A
C834        C873   1.492       .  S
C834        C835   1.406       .  A
C835        C836   1.408       .  A
C835        H840   1.086       .  S
C836        C866   1.494       .  S
C836        C837   1.420       .  A
C837        C869   1.494   1_455  S
C837        C838   1.414   1_455  A
C838        H839   1.082       .  S
C841        C861   1.495       .  S
C841        C842   1.418       .  A
C841        C846   1.404       .  A
C842        C858   1.489       .  S
C842        C843   1.411       .  A
C843        C844   1.404       .  A
C843        H848   1.084       .  S
C844        C849   1.490       .  S
C844        C845   1.411       .  A
C845        C853   1.487       .  S
C845        C846   1.410       .  A
C846        H847   1.085       .  S
C849        C850   1.349   1_565  D
C850        H852   1.084       .  S
C853        H855   1.086       .  S
C854        H856   1.088       .  S
C857        C858   1.346   1_545  D
C858        H860   1.086       .  S
C861        C862   1.345       .  D
C861        H863   1.088       .  S
C865        C866   1.349   1_655  D
C866        H868   1.089       .  S
C873        C874   1.349   1_455  D
C874        H876   1.084       .  S
C877        C878   1.347   1_455  D
C877        H879   1.086       .  S
C878        H880   1.085       .  S
