geometry optimzed in LAMMPS
_audit_creation_date              2020-11-30 
_audit_creation_method            'lammps2cif' 
_symmetry_space_group_name_H-M    'P1' 
_symmetry_Int_Tables_number       1 
_symmetry_cell_setting            triclinic 
loop_ 
_symmetry_equiv_pos_as_xyz 
  x,y,z 
_cell_length_a                    38.26216548 
_cell_length_b                    34.52164301618714 
_cell_length_c                    33.207616051976856 
_cell_angle_alpha                 89.37374430219846 
_cell_angle_beta                  89.28651412846504 
_cell_angle_gamma                 77.62369229912865 
loop_ 
_atom_site_label 
_atom_site_type_symbol 
_atom_site_fract_x 
_atom_site_fract_y 
_atom_site_fract_z 
_atom_site_charge 
N1          N  0.00746764  0.64803928  0.04813290    -0.03200
C2          C  0.00313750  0.66654845  0.08495440    -0.00600
C3          C  0.47147962  0.66211638  0.10305930    -0.23500
C4          C  0.45579561  0.64019944  0.07782594    -0.23700
C5          C  0.47775584  0.63233810  0.04437167    -0.00700
H6          H  0.46014505  0.67518444  0.13110994     0.13100
H7          H  0.42993269  0.63259256  0.08228560     0.13100
N8          N  0.06326724  0.18631303  0.96473382    -0.03200
C9          C  0.06290179  0.15025872  0.98176165    -0.00600
C10         C  0.09187739  0.12235739  0.96773246    -0.23500
C11         C  0.11087339  0.14170014  0.94193245    -0.23700
C12         C  0.09351994  0.18117292  0.94139861    -0.00700
H13         H  0.10031092  0.09218034  0.97838204     0.13100
H14         H  0.13679389  0.12911171  0.92852356     0.13100
Fe15       Fe  0.32384967  0.44227358  0.79691206     1.65800
Fe16       Fe  0.23278443  0.45502818  0.79791343     1.73200
Fe17       Fe  0.27896245  0.44569457  0.88568775     1.54400
O18         O  0.32722982  0.40462210  0.88863871    -0.81400
O19         O  0.20651123  0.50109310  0.83407340    -0.79700
O20         O  0.34681836  0.38979468  0.82616635    -0.83900
O21         O  0.34616380  0.47329427  0.83942667    -0.78700
O22         O  0.25192286  0.40006340  0.88690577    -0.80500
O23         O  0.24620027  0.49666609  0.75875641    -0.83200
C24         C  0.33547037  0.49237154  0.87133832     0.97500
C25         C  0.34923638  0.38423832  0.86406563     1.05000
O26         O  0.27836903  0.44744895  0.82666657    -1.12200
O27         O  0.25170459  0.41016351  0.75778799    -0.74700
O28         O  0.30961502  0.40934990  0.74982437    -0.78100
O29         O  0.30553263  0.49146250  0.88769941    -0.78800
C30         C  0.28132535  0.39848202  0.73961536     0.96400
O31         O  0.30436637  0.49512418  0.76631501    -0.76800
O32         O  0.21534329  0.41377130  0.83392738    -0.82000
C33         C  0.20728996  0.50645040  0.87173139     0.99000
C34         C  0.22624885  0.39402026  0.86557145     1.05000
O35         O  0.23153583  0.48664908  0.89382337    -0.77600
C36         C  0.27389704  0.51051882  0.75156747     1.03300
N37         N  0.29188304  0.75301855  0.53746141    -0.03200
C38         C  0.29877978  0.72577332  0.56835605    -0.00600
C39         C  0.33504405  0.71568779  0.57607329    -0.23500
C40         C  0.35128142  0.73776915  0.55092217    -0.23700
C41         C  0.32491831  0.75980315  0.52712948    -0.00700
H42         H  0.34820838  0.69494700  0.59870377     0.13100
H43         H  0.37966324  0.73769754  0.54983776     0.13100
N44         N  0.23331628  0.21945691  0.47678803    -0.03200
C45         C  0.22781926  0.25196429  0.50114043    -0.00600
C46         C  0.19349837  0.27426924  0.49575176    -0.23500
C47         C  0.17701270  0.25486909  0.46839527    -0.23700
C48         C  0.20175628  0.22142764  0.45718055    -0.00700
H49         H  0.18075716  0.30028691  0.51270118     0.13100
H50         H  0.14924635  0.26292078  0.45953442     0.13100
Fe51       Fe  0.47720745  0.96704919  0.29281565     1.65800
Fe52       Fe  0.06737390  0.95010491  0.29467425     1.73200
Fe53       Fe  0.01862722  0.98028622  0.37932254     1.56400
O54         O  0.48101816  0.03187713  0.36987940    -0.81400
O55         O  0.09349006  0.91856166  0.34387177    -0.79700
O56         O  0.44550548  0.01241754  0.32693050    -0.83900
O57         O  0.46336535  0.92631632  0.33188869    -0.78700
O58         O  0.05803820  0.01356405  0.37260536    -0.80500
O59         O  0.05542190  0.89801491  0.27507728    -0.83200
C60         C  0.46148893  0.92770911  0.37010676     0.97500
C61         C  0.45048886  0.03596159  0.35434508     1.05000
O62         O  0.02129559  0.96579541  0.32256460    -1.12200
O63         O  0.04738651  0.98086355  0.24205543    -0.74700
O64         O  0.48951870  0.00803667  0.25245640    -0.78100
O65         O  0.47832154  0.94868596  0.39091053    -0.78800
C66         C  0.01846051  0.00508521  0.23230751     0.96400
O67         O  0.00015484  0.92096829  0.25395622    -0.76800
O68         O  0.08368926  0.00030722  0.31199127    -0.82000
C69         C  0.08560966  0.91321761  0.38060642     0.99000
C70         C  0.07955937  0.01949481  0.34465449     1.05000
O71         O  0.05637040  0.93084000  0.39670900    -0.77600
C72         C  0.02894253  0.89447036  0.25402263     1.03300
C73         C  0.41941910  0.06706465  0.37075820     0.01600
C74         C  0.42388020  0.09147866  0.40414379     0.04500
C75         C  0.39397237  0.11640835  0.42264465    -0.11600
C76         C  0.35911429  0.11647880  0.40985397     0.23800
C77         C  0.35419540  0.09300713  0.37693790    -0.12200
C78         C  0.38392528  0.07016032  0.35618208     0.05200
C79         C  0.32775464  0.14390770  0.42878633     0.27600
C80         C  0.31433408  0.13541913  0.46693837    -0.12900
C81         C  0.28514319  0.16213690  0.48469270     0.05700
C82         C  0.26737176  0.19592529  0.46310669    -0.08800
C83         C  0.28189108  0.20505653  0.42567658     0.06500
C84         C  0.31214103  0.17955708  0.40896286    -0.13200
Br85       Br  0.30600052  0.09193126  0.36082558    -0.05300
Br86       Br  0.47017057  0.09291030  0.42618944     0.00400
Br87       Br  0.27148323  0.15366144  0.53936761     0.00800
Br88       Br  0.33265926  0.19365047  0.35887418    -0.03600
Br89       Br  0.37425762  0.04619376  0.30629467     0.00900
Br90       Br  0.40039654  0.15123924  0.46597342    -0.02900
Br91       Br  0.33557108  0.08671658  0.49442155    -0.03700
Br92       Br  0.26197149  0.25406284  0.39820622     0.00200
C93         C  0.19142032  0.18889348  0.43397699     0.01600
C94         C  0.18392553  0.15566217  0.45490396     0.04500
C95         C  0.16963423  0.12710420  0.43463413    -0.11600
C96         C  0.16203833  0.13167698  0.39331872     0.23800
C97         C  0.16942178  0.16455286  0.37212415    -0.12200
C98         C  0.18236606  0.19402713  0.39272564     0.05200
C99         C  0.14168796  0.10481213  0.37410325     0.27600
C100        C  0.15917543  0.06647991  0.36206494    -0.12900
C101        C  0.13898904  0.03882729  0.35051374     0.05700
C102        C  0.10119156  0.04965357  0.35083172    -0.08800
C103        C  0.08408647  0.08918968  0.35875386     0.06500
C104        C  0.10412691  0.11645552  0.37137380    -0.13200
Br105      Br  0.16005098  0.16984950  0.31512449    -0.05300
Br106      Br  0.18612621  0.15271022  0.51265668     0.00400
Br107      Br  0.16331326  0.98589612  0.33568141     0.00800
Br108      Br  0.07987022  0.16916206  0.38702891    -0.03600
Br109      Br  0.18182076  0.24363610  0.36542705     0.00900
Br110      Br  0.15766698  0.08300479  0.46413353    -0.02900
Br111      Br  0.21071668  0.05165408  0.36318176    -0.03700
Br112      Br  0.03349423  0.10655880  0.34974031     0.00200
C113        C  0.43781622  0.90488875  0.39100937     0.01600
C114        C  0.45019355  0.88069894  0.42465379     0.04500
C115        C  0.42740600  0.85948282  0.44453457    -0.11600
C116        C  0.39220026  0.86207243  0.43083817     0.23800
C117        C  0.37970425  0.88618057  0.39743516    -0.12200
C118        C  0.40238673  0.90743934  0.37744990     0.05200
C119        C  0.36934781  0.83730120  0.45020054     0.27600
C120        C  0.37620384  0.79652013  0.44203038    -0.12900
C121        C  0.36027649  0.77119399  0.46597289     0.05700
C122        C  0.33435433  0.78701321  0.49578989    -0.08800
C123        C  0.32530730  0.82849348  0.50146307     0.06500
C124        C  0.34326701  0.85346911  0.47920852    -0.13200
Br125      Br  0.33147072  0.88951836  0.37892357    -0.05300
Br126      Br  0.99908954  0.87423518  0.44210464     0.00400
Br127      Br  0.37788507  0.71451995  0.46051244     0.00800
Br128      Br  0.33432787  0.90948508  0.49051953    -0.03600
Br129      Br  0.38396563  0.94061517  0.33204380     0.00900
Br130      Br  0.44459868  0.82611824  0.49030852    -0.02900
Br131      Br  0.40933716  0.77519301  0.39933654    -0.03700
Br132      Br  0.29241185  0.85100669  0.54356416     0.00200
C133        C  0.25804535  0.77030890  0.51786991     0.01600
C134        C  0.22860292  0.79317325  0.53942917     0.04500
C135        C  0.19757669  0.81301716  0.51889909    -0.11600
C136        C  0.19668721  0.81337658  0.47644422     0.23800
C137        C  0.22558746  0.79029537  0.45496078    -0.12200
C138        C  0.25483263  0.76714237  0.47563416     0.05200
C139        C  0.16626447  0.83904071  0.45418652     0.27600
C140        C  0.14148527  0.82207488  0.43298751    -0.12900
C141        C  0.11546551  0.84602526  0.40826731     0.05700
C142        C  0.11253312  0.88740455  0.40657232    -0.08800
C143        C  0.13539482  0.90466498  0.43030725     0.06500
C144        C  0.16299722  0.88056714  0.45268835    -0.13200
Br145      Br  0.22593315  0.79162667  0.39678032    -0.05300
Br146      Br  0.23085243  0.80106716  0.59637140     0.00400
Br147      Br  0.08364918  0.82238074  0.37684713     0.00800
Br148      Br  0.19718680  0.90450611  0.48008106    -0.03600
Br149      Br  0.28834148  0.72830027  0.44578338     0.00900
Br150      Br  0.15614620  0.84034318  0.54880466    -0.02900
Br151      Br  0.14302657  0.76604863  0.43829289    -0.03700
Br152      Br  0.12845256  0.96160333  0.43286917     0.00200
C153        C  0.28185276  0.37271346  0.70391236     0.01600
C154        C  0.30452613  0.33462355  0.70186032     0.04500
C155        C  0.30236722  0.30964534  0.66889806    -0.11600
C156        C  0.27726627  0.32238625  0.63819021     0.23800
C157        C  0.25528003  0.36075586  0.63980889    -0.12200
C158        C  0.25794653  0.38598857  0.67210500     0.05200
C159        C  0.27187901  0.29520265  0.60525761     0.27600
C160        C  0.28929067  0.29597381  0.56773242    -0.12900
C161        C  0.27791029  0.27761561  0.53389587     0.05700
C162        C  0.24882300  0.25845490  0.53730118    -0.08800
C163        C  0.23361745  0.25494330  0.57604567     0.06500
C164        C  0.24536304  0.27285979  0.60976556    -0.13200
Br165      Br  0.22048067  0.37829028  0.59818571    -0.05300
Br166      Br  0.33699583  0.31572509  0.74519441     0.00400
Br167      Br  0.30041386  0.28231383  0.48269527     0.00800
Br168      Br  0.22311949  0.26975740  0.66191691    -0.03600
Br169      Br  0.22945573  0.43948931  0.67194729     0.00900
Br170      Br  0.33287744  0.25749116  0.66608787    -0.02900
Br171      Br  0.32700735  0.32491361  0.56237559    -0.03700
Br172      Br  0.19400604  0.22892875  0.58292257     0.00200
C173        C  0.27016641  0.54591256  0.72452053     0.01600
C174        C  0.23879965  0.57657495  0.72622170     0.04500
C175        C  0.23427430  0.60879995  0.69897716    -0.11600
C176        C  0.26158287  0.61186103  0.67122495     0.23800
C177        C  0.29324123  0.58218145  0.67010695    -0.12200
C178        C  0.29733802  0.54897593  0.69599927     0.05200
C179        C  0.25914582  0.64810795  0.64594233     0.27600
C180        C  0.25100951  0.64777927  0.60470541    -0.12900
C181        C  0.25847784  0.67766919  0.57867715     0.05700
C182        C  0.27401540  0.70800713  0.59400286    -0.08800
C183        C  0.27751642  0.71079333  0.63636757     0.06500
C184        C  0.27030756  0.68084236  0.66207418    -0.13200
Br185      Br  0.33162663  0.58786264  0.63360323    -0.05300
Br186      Br  0.20290246  0.57704906  0.76780259     0.00400
Br187      Br  0.25184689  0.67349105  0.52177562     0.00800
Br188      Br  0.28014605  0.68193959  0.71897526    -0.03600
Br189      Br  0.34000786  0.50754547  0.69066364     0.00900
Br190      Br  0.19106569  0.64969944  0.70012354    -0.02900
Br191      Br  0.23310519  0.60401426  0.58363130    -0.03700
Br192      Br  0.29779569  0.75235397  0.65923911     0.00200
C193        C  0.11211810  0.21367194  0.92960721     0.01600
C194        C  0.14382318  0.21722774  0.94984273     0.04500
C195        C  0.16105506  0.24820681  0.93999398    -0.11600
C196        C  0.14690717  0.27613233  0.91024490     0.23800
C197        C  0.11607547  0.27251876  0.88936340    -0.12200
C198        C  0.09972028  0.24041739  0.89767903     0.05200
C199        C  0.16669564  0.30694312  0.89840578     0.27600
C200        C  0.16409418  0.34104678  0.92214228    -0.12900
C201        C  0.18502168  0.36873647  0.91243968     0.05700
C202        C  0.20743791  0.36306921  0.87810349    -0.08800
C203        C  0.20980505  0.32919773  0.85412575     0.06500
C204        C  0.18988890  0.30080062  0.86466381    -0.13200
Br205      Br  0.09710239  0.31120912  0.84837270    -0.05300
Br206      Br  0.16627722  0.17872384  0.98927496     0.00400
Br207      Br  0.18248790  0.41485302  0.94563158     0.00800
Br208      Br  0.19483254  0.25305913  0.83339904    -0.03600
Br209      Br  0.06523841  0.23007785  0.86010476     0.00900
Br210      Br  0.20512642  0.25192171  0.96618898    -0.02900
Br211      Br  0.13161211  0.34982676  0.96764065    -0.03700
Br212      Br  0.24110473  0.32122135  0.80749377     0.00200
C213        C  0.37999925  0.35499393  0.88092595     0.01600
C214        C  0.37472367  0.32812521  0.91176190     0.04500
C215        C  0.40437689  0.30295711  0.92999229    -0.11600
C216        C  0.43937056  0.30315142  0.91643478     0.23800
C217        C  0.44474435  0.33021791  0.88613309    -0.12200
C218        C  0.41531039  0.35673235  0.86920951     0.05200
C219        C  0.47022854  0.27254587  0.93124016     0.27600
C220        C  0.49270862  0.28117915  0.96173073    -0.12900
C221        C  0.02321683  0.25256386  0.97333521     0.05700
C222        C  0.03108029  0.21506392  0.95498036    -0.08800
C223        C  0.50857745  0.20667828  0.92417678     0.06500
C224        C  0.47818236  0.23515364  0.91273050    -0.13200
Br225      Br  0.49266243  0.33074020  0.86768878    -0.05300
Br226      Br  0.32695757  0.32437446  0.92812621     0.00400
Br227      Br  0.05535793  0.26530130  0.01260915     0.00800
Br228      Br  0.44820060  0.22373514  0.87000917    -0.03600
Br229      Br  0.42392304  0.39745420  0.83235899     0.00900
Br230      Br  0.39742225  0.26813609  0.97381224    -0.02900
Br231      Br  0.48191879  0.33249929  0.98685457    -0.03700
Br232      Br  0.52196097  0.15831647  0.89335424     0.00200
C233        C  0.01876676  0.03036746  0.19577728     0.01600
C234        C  0.03278776  0.01302797  0.15902792     0.04500
C235        C  0.03614741  0.03706250  0.12526802    -0.11600
C236        C  0.02393557  0.07854971  0.12724329     0.23800
C237        C  0.00841768  0.09585585  0.16329273    -0.12200
C238        C  0.00615947  0.07195612  0.19757973     0.05200
C239        C  0.02908714  0.10386225  0.09191692     0.27600
C240        C  0.05735113  0.12403716  0.09155781    -0.12900
C241        C  0.06444885  0.14493787  0.05686395     0.05700
C242        C  0.04530623  0.14341027  0.02094626    -0.08800
C243        C  0.01549621  0.12524623  0.02232534     0.06500
C244        C  0.00713317  0.10610053  0.05785196    -0.13200
Br245      Br  0.49112680  0.15258391  0.16578017    -0.05300
Br246      Br  0.04563931  0.95609871  0.15393229     0.00400
Br247      Br  0.10156856  0.17440099  0.05877549     0.00800
Br248      Br  0.46680948  0.08071941  0.05937074    -0.03600
Br249      Br  0.48749466  0.09677748  0.24743953     0.00900
Br250      Br  0.05879464  0.01322331  0.07657053    -0.02900
Br251      Br  0.08852231  0.11995054  0.13747999    -0.03700
Br252      Br  0.48602505  0.12552584  0.97602638     0.00200
C253        C  0.03950242  0.63772935  0.02272866     0.01600
C254        C  0.07007422  0.61046124  0.03709745     0.04500
C255        C  0.09831455  0.59349155  0.01074082    -0.11600
C256        C  0.09686880  0.60373237  0.96960964     0.23800
C257        C  0.06771029  0.63229467  0.95526221    -0.12200
C258        C  0.03889172  0.64859745  0.98124643     0.05200
C259        C  0.12433818  0.58171110  0.94097162     0.27600
C260        C  0.15844432  0.59091380  0.93752810    -0.12900
C261        C  0.18536605  0.56727620  0.91355957     0.05700
C262        C  0.17794999  0.53518273  0.89168050    -0.08800
C263        C  0.14319679  0.52745933  0.89330156     0.06500
C264        C  0.11674910  0.55008360  0.91847924    -0.13200
Br265      Br  0.06703377  0.64776898  0.89912839    -0.05300
Br266      Br  0.07166817  0.59090374  0.09144843     0.00400
Br267      Br  0.23255086  0.57866030  0.91078475     0.00800
Br268      Br  0.07062762  0.53624712  0.92405030    -0.03600
Br269      Br  0.99845552  0.68401778  0.95797240     0.00900
Br270      Br  0.13808708  0.55360139  0.03025587    -0.02900
Br271      Br  0.16834037  0.63537830  0.96653235    -0.03700
Br272      Br  0.13235640  0.48410160  0.86307627     0.00200
C273        C  0.35963371  0.51448930  0.89137453     0.01600
C274        C  0.36215843  0.51343398  0.93396284     0.04500
C275        C  0.38493426  0.53408906  0.95328649    -0.11600
C276        C  0.40709804  0.55385925  0.93048070     0.23800
C277        C  0.40601194  0.55365685  0.88818164    -0.12200
C278        C  0.38190583  0.53469111  0.86854735     0.05200
C279        C  0.43030491  0.57604495  0.95181580     0.27600
C280        C  0.41726292  0.61644598  0.96001441    -0.12900
C281        C  0.43465076  0.63559034  0.98817724     0.05700
C282        C  0.46562466  0.61449317  0.00804260    -0.08800
C283        C  0.47935176  0.57431606  0.99852727     0.06500
C284        C  0.46216135  0.55543694  0.96974640    -0.13200
Br285      Br  0.43768075  0.57961101  0.85749747    -0.05300
Br286      Br  0.33709621  0.48117560  0.96673581     0.00400
Br287      Br  0.41370345  0.69000902  0.00208788     0.00800
Br288      Br  0.48008795  0.50016766  0.95739605    -0.03600
Br289      Br  0.37900706  0.53811042  0.81051330     0.00900
Br290      Br  0.38567708  0.53566903  0.01149038    -0.02900
Br291      Br  0.37353603  0.64449425  0.93528562    -0.03700
Br292      Br  0.51782007  0.54304843  0.02913836     0.00200
C293        C  0.02323484  0.69488891  0.10270608     0.01600
C294        C  0.03520869  0.68888940  0.14318600     0.04500
C295        C  0.04356756  0.72027751  0.16531360    -0.11600
C296        C  0.03739555  0.75876419  0.14883076     0.23800
C297        C  0.02658627  0.76497559  0.10854075    -0.12200
C298        C  0.51931568  0.73339804  0.08571454     0.05200
C299        C  0.03587724  0.79332381  0.17590596     0.27600
C300        C  0.50475820  0.80727868  0.19923788    -0.12900
C301        C  0.50281891  0.83950532  0.22547144     0.05700
C302        C  0.03180900  0.85886358  0.22800610    -0.08800
C303        C  0.06315059  0.84453236  0.20461600     0.06500
C304        C  0.06508308  0.81186949  0.17881497    -0.13200
Br305      Br  0.51784060  0.81809379  0.08629954    -0.05300
Br306      Br  0.03362604  0.64042118  0.17215005     0.00400
Br307      Br  0.46095965  0.85510527  0.25956999     0.00800
Br308      Br  0.10762078  0.79240839  0.14697623    -0.03600
Br309      Br  0.49608180  0.74603440  0.03495273     0.00900
Br310      Br  0.05998904  0.71185816  0.22016338    -0.02900
Br311      Br  0.46449667  0.78201976  0.19496519    -0.03700
Br312      Br  0.10335478  0.87009865  0.20612300     0.00200
N313        N  0.50746762  0.64803929  0.04813291    -0.03200
C314        C  0.50313751  0.66654844  0.08495440    -0.00600
C315        C  0.97147961  0.66211640  0.10305920    -0.23500
C316        C  0.95579560  0.64019946  0.07782590    -0.23700
C317        C  0.97775585  0.63233809  0.04437165    -0.00700
H318        H  0.96014488  0.67518463  0.13111012     0.13100
H319        H  0.92993266  0.63259256  0.08228553     0.13100
N320        N  0.56326724  0.18631303  0.96473383    -0.03200
C321        C  0.56290178  0.15025872  0.98176164    -0.00600
C322        C  0.59187737  0.12235738  0.96773242    -0.23500
C323        C  0.61087338  0.14170013  0.94193244    -0.23700
C324        C  0.59351993  0.18117291  0.94139860    -0.00700
H325        H  0.60031088  0.09218031  0.97838199     0.13100
H326        H  0.63679390  0.12911167  0.92852351     0.13100
Fe327      Fe  0.82384970  0.44227363  0.79691205     1.65800
Fe328      Fe  0.73278448  0.45502818  0.79791344     1.73200
Fe329      Fe  0.77896248  0.44569456  0.88568775     1.54400
O330        O  0.82722983  0.40462207  0.88863869    -0.81400
O331        O  0.70651128  0.50109310  0.83407340    -0.79700
O332        O  0.84681845  0.38979474  0.82616633    -0.83900
O333        O  0.84616381  0.47329434  0.83942666    -0.78700
O334        O  0.75192289  0.40006339  0.88690578    -0.80500
O335        O  0.74620028  0.49666608  0.75875639    -0.83200
C336        C  0.83547038  0.49237159  0.87133831     0.97500
C337        C  0.84923643  0.38423834  0.86406561     1.05000
O338        O  0.77836907  0.44744896  0.82666656    -1.12200
O339        O  0.75170462  0.41016351  0.75778800    -0.74700
O340        O  0.80961504  0.40934993  0.74982435    -0.78100
O341        O  0.80553265  0.49146252  0.88769943    -0.78800
C342        C  0.78132537  0.39848203  0.73961535     0.96400
O343        O  0.80436638  0.49512425  0.76631504    -0.76800
O344        O  0.71534334  0.41377130  0.83392738    -0.82000
C345        C  0.70728998  0.50645040  0.87173139     0.99000
C346        C  0.72624887  0.39402025  0.86557146     1.05000
O347        O  0.73153585  0.48664908  0.89382337    -0.77600
C348        C  0.77389703  0.51051885  0.75156748     1.03300
N349        N  0.79188302  0.75301857  0.53746141    -0.03200
C350        C  0.79877976  0.72577333  0.56835604    -0.00600
C351        C  0.83504403  0.71568777  0.57607326    -0.23500
C352        C  0.85128140  0.73776914  0.55092216    -0.23700
C353        C  0.82491831  0.75980315  0.52712947    -0.00700
H354        H  0.84820836  0.69494698  0.59870373     0.13100
H355        H  0.87966322  0.73769752  0.54983776     0.13100
N356        N  0.73331624  0.21945692  0.47678803    -0.03200
C357        C  0.72781923  0.25196431  0.50114041    -0.00600
C358        C  0.69349833  0.27426924  0.49575177    -0.23500
C359        C  0.67701264  0.25486909  0.46839527    -0.23700
C360        C  0.70175625  0.22142764  0.45718057    -0.00700
H361        H  0.68075710  0.30028691  0.51270119     0.13100
H362        H  0.64924636  0.26292075  0.45953444     0.13100
Fe363      Fe  0.97720748  0.96704918  0.29281566     1.65800
Fe364      Fe  0.56737388  0.95010489  0.29467426     1.73200
Fe365      Fe  0.51862722  0.98028624  0.37932254     1.56400
O366        O  0.98101817  0.03187713  0.36987944    -0.81400
O367        O  0.59349003  0.91856162  0.34387176    -0.79700
O368        O  0.94550551  0.01241754  0.32693050    -0.83900
O369        O  0.96336538  0.92631629  0.33188869    -0.78700
O370        O  0.55803820  0.01356407  0.37260536    -0.80500
O371        O  0.55542185  0.89801490  0.27507729    -0.83200
C372        C  0.96148893  0.92770910  0.37010676     0.97500
C373        C  0.95048888  0.03596159  0.35434509     1.05000
O374        O  0.52129557  0.96579540  0.32256460    -1.12200
O375        O  0.54738651  0.98086351  0.24205543    -0.74700
O376        O  0.98951869  0.00803664  0.25245640    -0.78100
O377        O  0.97832153  0.94868597  0.39091053    -0.78800
C378        C  0.51846053  0.00508521  0.23230752     0.96400
O379        O  0.50015480  0.92096831  0.25395622    -0.76800
O380        O  0.58368924  0.00030722  0.31199127    -0.82000
C381        C  0.58560966  0.91321760  0.38060643     0.99000
C382        C  0.57955937  0.01949482  0.34465449     1.05000
O383        O  0.55637042  0.93084004  0.39670903    -0.77600
C384        C  0.52894248  0.89447037  0.25402263     1.03300
C385        C  0.91941910  0.06706466  0.37075821     0.01600
C386        C  0.92388017  0.09147867  0.40414380     0.04500
C387        C  0.89397233  0.11640836  0.42264465    -0.11600
C388        C  0.85911425  0.11647879  0.40985397     0.23800
C389        C  0.85419539  0.09300712  0.37693788    -0.12200
C390        C  0.88392529  0.07016032  0.35618207     0.05200
C391        C  0.82775459  0.14390769  0.42878632     0.27600
C392        C  0.81433402  0.13541911  0.46693837    -0.12900
C393        C  0.78514313  0.16213690  0.48469270     0.05700
C394        C  0.76737172  0.19592529  0.46310670    -0.08800
C395        C  0.78189103  0.20505652  0.42567659     0.06500
C396        C  0.81214097  0.17955707  0.40896285    -0.13200
Br397      Br  0.80600052  0.09193123  0.36082555    -0.05300
Br398      Br  0.97017054  0.09291032  0.42618947     0.00400
Br399      Br  0.77148316  0.15366144  0.53936761     0.00800
Br400      Br  0.83265920  0.19365047  0.35887417    -0.03600
Br401      Br  0.87425770  0.04619378  0.30629463     0.00900
Br402      Br  0.90039647  0.15123924  0.46597343    -0.02900
Br403      Br  0.83557101  0.08671657  0.49442155    -0.03700
Br404      Br  0.76197146  0.25406285  0.39820625     0.00200
C405        C  0.69142029  0.18889349  0.43397700     0.01600
C406        C  0.68392546  0.15566219  0.45490398     0.04500
C407        C  0.66963418  0.12710423  0.43463413    -0.11600
C408        C  0.66203834  0.13167698  0.39331870     0.23800
C409        C  0.66942183  0.16455285  0.37212415    -0.12200
C410        C  0.68236610  0.19402712  0.39272565     0.05200
C411        C  0.64168798  0.10481214  0.37410322     0.27600
C412        C  0.65917544  0.06647991  0.36206492    -0.12900
C413        C  0.63898905  0.03882729  0.35051373     0.05700
C414        C  0.60119157  0.04965357  0.35083171    -0.08800
C415        C  0.58408651  0.08918967  0.35875386     0.06500
C416        C  0.60412694  0.11645552  0.37137379    -0.13200
Br417      Br  0.66005115  0.16984947  0.31512446    -0.05300
Br418      Br  0.68612614  0.15271023  0.51265670     0.00400
Br419      Br  0.66331323  0.98589610  0.33568141     0.00800
Br420      Br  0.57987021  0.16916206  0.38702892    -0.03600
Br421      Br  0.68182090  0.24363606  0.36542703     0.00900
Br422      Br  0.65766690  0.08300481  0.46413352    -0.02900
Br423      Br  0.71071669  0.05165407  0.36318177    -0.03700
Br424      Br  0.53349428  0.10655882  0.34974028     0.00200
C425        C  0.93781620  0.90488876  0.39100935     0.01600
C426        C  0.95019354  0.88069895  0.42465378     0.04500
C427        C  0.92740600  0.85948283  0.44453456    -0.11600
C428        C  0.89220028  0.86207243  0.43083815     0.23800
C429        C  0.87970424  0.88618057  0.39743516    -0.12200
C430        C  0.90238671  0.90743935  0.37744989     0.05200
C431        C  0.86934786  0.83730119  0.45020055     0.27600
C432        C  0.87620393  0.79652011  0.44203042    -0.12900
C433        C  0.86027655  0.77119398  0.46597291     0.05700
C434        C  0.83435436  0.78701321  0.49578989    -0.08800
C435        C  0.82530737  0.82849347  0.50146309     0.06500
C436        C  0.84326710  0.85346909  0.47920856    -0.13200
Br437      Br  0.83147069  0.88951835  0.37892359    -0.05300
Br438      Br  0.49908956  0.87423518  0.44210464     0.00400
Br439      Br  0.87788504  0.71451994  0.46051241     0.00800
Br440      Br  0.83432803  0.90948507  0.49051957    -0.03600
Br441      Br  0.88396559  0.94061518  0.33204380     0.00900
Br442      Br  0.94459865  0.82611826  0.49030853    -0.02900
Br443      Br  0.90933730  0.77519300  0.39933660    -0.03700
Br444      Br  0.79241183  0.85100671  0.54356410     0.00200
C445        C  0.75804534  0.77030892  0.51786990     0.01600
C446        C  0.72860289  0.79317323  0.53942917     0.04500
C447        C  0.69757668  0.81301716  0.51889908    -0.11600
C448        C  0.69668723  0.81337660  0.47644420     0.23800
C449        C  0.72558749  0.79029543  0.45496077    -0.12200
C450        C  0.75483265  0.76714242  0.47563415     0.05200
C451        C  0.66626449  0.83904072  0.45418650     0.27600
C452        C  0.64148530  0.82207488  0.43298750    -0.12900
C453        C  0.61546554  0.84602526  0.40826730     0.05700
C454        C  0.61253313  0.88740454  0.40657232    -0.08800
C455        C  0.63539482  0.90466499  0.43030726     0.06500
C456        C  0.66299724  0.88056715  0.45268835    -0.13200
Br457      Br  0.72593313  0.79162666  0.39678030    -0.05300
Br458      Br  0.73085238  0.80106714  0.59637140     0.00400
Br459      Br  0.58364916  0.82238074  0.37684716     0.00800
Br460      Br  0.69718688  0.90450610  0.48008099    -0.03600
Br461      Br  0.78834146  0.72830025  0.44578339     0.00900
Br462      Br  0.65614616  0.84034316  0.54880462    -0.02900
Br463      Br  0.64302654  0.76604865  0.43829292    -0.03700
Br464      Br  0.62845251  0.96160333  0.43286920     0.00200
C465        C  0.78185274  0.37271348  0.70391235     0.01600
C466        C  0.80452609  0.33462358  0.70186030     0.04500
C467        C  0.80236718  0.30964539  0.66889802    -0.11600
C468        C  0.77726626  0.32238632  0.63819015     0.23800
C469        C  0.75528004  0.36075593  0.63980885    -0.12200
C470        C  0.75794653  0.38598861  0.67210498     0.05200
C471        C  0.77187901  0.29520270  0.60525755     0.27600
C472        C  0.78929067  0.29597383  0.56773237    -0.12900
C473        C  0.77791031  0.27761561  0.53389583     0.05700
C474        C  0.74882299  0.25845493  0.53730115    -0.08800
C475        C  0.73361747  0.25494332  0.57604565     0.06500
C476        C  0.74536308  0.27285979  0.60976553    -0.13200
Br477      Br  0.72048077  0.37829049  0.59818560    -0.05300
Br478      Br  0.83699576  0.31572509  0.74519440     0.00400
Br479      Br  0.80041396  0.28231377  0.48269525     0.00800
Br480      Br  0.72311963  0.26975737  0.66191692    -0.03600
Br481      Br  0.72945585  0.43948940  0.67194727     0.00900
Br482      Br  0.83287742  0.25749124  0.66608784    -0.02900
Br483      Br  0.82700734  0.32491364  0.56237555    -0.03700
Br484      Br  0.69400603  0.22892879  0.58292259     0.00200
C485        C  0.77016639  0.54591258  0.72452052     0.01600
C486        C  0.73879961  0.57657496  0.72622166     0.04500
C487        C  0.73427428  0.60879995  0.69897712    -0.11600
C488        C  0.76158288  0.61186104  0.67122495     0.23800
C489        C  0.79324125  0.58218147  0.67010697    -0.12200
C490        C  0.79733800  0.54897595  0.69599928     0.05200
C491        C  0.75914585  0.64810794  0.64594233     0.27600
C492        C  0.75100953  0.64777927  0.60470542    -0.12900
C493        C  0.75847782  0.67766920  0.57867716     0.05700
C494        C  0.77401540  0.70800714  0.59400286    -0.08800
C495        C  0.77751649  0.71079330  0.63636756     0.06500
C496        C  0.77030763  0.68084234  0.66207417    -0.13200
Br497      Br  0.83162671  0.58786266  0.63360331    -0.05300
Br498      Br  0.70290241  0.57704906  0.76780255     0.00400
Br499      Br  0.75184682  0.67349107  0.52177563     0.00800
Br500      Br  0.78014601  0.68193961  0.71897528    -0.03600
Br501      Br  0.84000781  0.50754545  0.69066363     0.00900
Br502      Br  0.69106566  0.64969943  0.70012351    -0.02900
Br503      Br  0.73310514  0.60401428  0.58363132    -0.03700
Br504      Br  0.79779583  0.75235392  0.65923909     0.00200
C505        C  0.61211810  0.21367192  0.92960719     0.01600
C506        C  0.64382317  0.21722773  0.94984272     0.04500
C507        C  0.66105505  0.24820680  0.93999398    -0.11600
C508        C  0.64690715  0.27613234  0.91024490     0.23800
C509        C  0.61607545  0.27251876  0.88936339    -0.12200
C510        C  0.59972028  0.24041737  0.89767901     0.05200
C511        C  0.66669562  0.30694313  0.89840578     0.27600
C512        C  0.66409416  0.34104678  0.92214230    -0.12900
C513        C  0.68502167  0.36873647  0.91243969     0.05700
C514        C  0.70743791  0.36306922  0.87810350    -0.08800
C515        C  0.70980501  0.32919775  0.85412574     0.06500
C516        C  0.68988885  0.30080064  0.86466380    -0.13200
Br517      Br  0.59710234  0.31120912  0.84837272    -0.05300
Br518      Br  0.66627718  0.17872385  0.98927497     0.00400
Br519      Br  0.68248784  0.41485304  0.94563157     0.00800
Br520      Br  0.69483247  0.25305914  0.83339903    -0.03600
Br521      Br  0.56523837  0.23007784  0.86010478     0.00900
Br522      Br  0.70512639  0.25192171  0.96618899    -0.02900
Br523      Br  0.63161207  0.34982676  0.96764064    -0.03700
Br524      Br  0.74110467  0.32122135  0.80749376     0.00200
C525        C  0.87999928  0.35499394  0.88092594     0.01600
C526        C  0.87472371  0.32812523  0.91176192     0.04500
C527        C  0.90437693  0.30295712  0.92999230    -0.11600
C528        C  0.93937059  0.30315142  0.91643476     0.23800
C529        C  0.94474438  0.33021790  0.88613307    -0.12200
C530        C  0.91531043  0.35673235  0.86920949     0.05200
C531        C  0.97022856  0.27254587  0.93124014     0.27600
C532        C  0.99270862  0.28117914  0.96173072    -0.12900
C533        C  0.52321684  0.25256386  0.97333521     0.05700
C534        C  0.53108030  0.21506392  0.95498037    -0.08800
C535        C  0.00857745  0.20667828  0.92417677     0.06500
C536        C  0.97818236  0.23515363  0.91273049    -0.13200
Br537      Br  0.99266245  0.33074018  0.86768876    -0.05300
Br538      Br  0.82695765  0.32437445  0.92812625     0.00400
Br539      Br  0.55535790  0.26530129  0.01260919     0.00800
Br540      Br  0.94820056  0.22373513  0.87000919    -0.03600
Br541      Br  0.92392312  0.39745420  0.83235900     0.00900
Br542      Br  0.89742237  0.26813610  0.97381227    -0.02900
Br543      Br  0.98191874  0.33249928  0.98685458    -0.03700
Br544      Br  0.02196101  0.15831649  0.89335421     0.00200
C545        C  0.51876683  0.03036747  0.19577731     0.01600
C546        C  0.53278781  0.01302798  0.15902794     0.04500
C547        C  0.53614743  0.03706250  0.12526802    -0.11600
C548        C  0.52393560  0.07854971  0.12724330     0.23800
C549        C  0.50841774  0.09585586  0.16329273    -0.12200
C550        C  0.50615954  0.07195613  0.19757975     0.05200
C551        C  0.52908717  0.10386224  0.09191693     0.27600
C552        C  0.55735116  0.12403716  0.09155781    -0.12900
C553        C  0.56444886  0.14493788  0.05686394     0.05700
C554        C  0.54530623  0.14341026  0.02094625    -0.08800
C555        C  0.51549621  0.12524621  0.02232534     0.06500
C556        C  0.50713320  0.10610052  0.05785196    -0.13200
Br557      Br  0.99112674  0.15258390  0.16578017    -0.05300
Br558      Br  0.54563926  0.95609871  0.15393229     0.00400
Br559      Br  0.60156853  0.17440104  0.05877548     0.00800
Br560      Br  0.96680945  0.08071943  0.05937073    -0.03600
Br561      Br  0.98749458  0.09677747  0.24743952     0.00900
Br562      Br  0.55879459  0.01322329  0.07657050    -0.02900
Br563      Br  0.58852240  0.11995051  0.13747995    -0.03700
Br564      Br  0.98602512  0.12552580  0.97602634     0.00200
C565        C  0.53950241  0.63772935  0.02272866     0.01600
C566        C  0.57007421  0.61046124  0.03709747     0.04500
C567        C  0.59831454  0.59349153  0.01074083    -0.11600
C568        C  0.59686878  0.60373233  0.96960963     0.23800
C569        C  0.56771030  0.63229465  0.95526221    -0.12200
C570        C  0.53889172  0.64859744  0.98124643     0.05200
C571        C  0.62433817  0.58171107  0.94097161     0.27600
C572        C  0.65844428  0.59091381  0.93752805    -0.12900
C573        C  0.68536602  0.56727622  0.91355952     0.05700
C574        C  0.67794999  0.53518272  0.89168048    -0.08800
C575        C  0.64319681  0.52745930  0.89330153     0.06500
C576        C  0.61674911  0.55008354  0.91847923    -0.13200
Br577      Br  0.56703387  0.64776903  0.89912842    -0.05300
Br578      Br  0.57166813  0.59090373  0.09144844     0.00400
Br579      Br  0.73255083  0.57866031  0.91078474     0.00800
Br580      Br  0.57062772  0.53624690  0.92405038    -0.03600
Br581      Br  0.49845555  0.68401779  0.95797239     0.00900
Br582      Br  0.63808704  0.55360136  0.03025587    -0.02900
Br583      Br  0.66834032  0.63537831  0.96653232    -0.03700
Br584      Br  0.63235640  0.48410158  0.86307624     0.00200
C585        C  0.85963371  0.51448937  0.89137452     0.01600
C586        C  0.86215845  0.51343404  0.93396283     0.04500
C587        C  0.88493429  0.53408909  0.95328647    -0.11600
C588        C  0.90709811  0.55385924  0.93048067     0.23800
C589        C  0.90601200  0.55365684  0.88818161    -0.12200
C590        C  0.88190586  0.53469113  0.86854733     0.05200
C591        C  0.93030499  0.57604492  0.95181577     0.27600
C592        C  0.91726300  0.61644596  0.96001438    -0.12900
C593        C  0.93465081  0.63559033  0.98817722     0.05700
C594        C  0.96562470  0.61449316  0.00804259    -0.08800
C595        C  0.97935180  0.57431605  0.99852728     0.06500
C596        C  0.96216142  0.55543692  0.96974641    -0.13200
Br597      Br  0.93768073  0.57961102  0.85749734    -0.05300
Br598      Br  0.83709632  0.48117555  0.96673579     0.00400
Br599      Br  0.91370344  0.69000899  0.00208789     0.00800
Br600      Br  0.98008809  0.50016766  0.95739603    -0.03600
Br601      Br  0.87900717  0.53811038  0.81051328     0.00900
Br602      Br  0.88567706  0.53566908  0.01149037    -0.02900
Br603      Br  0.87353614  0.64449425  0.93528556    -0.03700
Br604      Br  0.01782013  0.54304843  0.02913838     0.00200
C605        C  0.52323485  0.69488890  0.10270609     0.01600
C606        C  0.53520866  0.68888941  0.14318602     0.04500
C607        C  0.54356753  0.72027752  0.16531362    -0.11600
C608        C  0.53739555  0.75876419  0.14883077     0.23800
C609        C  0.52658629  0.76497559  0.10854075    -0.12200
C610        C  0.01931565  0.73339805  0.08571454     0.05200
C611        C  0.53587722  0.79332382  0.17590597     0.27600
C612        C  0.00475822  0.80727868  0.19923788    -0.12900
C613        C  0.00281894  0.83950531  0.22547144     0.05700
C614        C  0.53180895  0.85886360  0.22800609    -0.08800
C615        C  0.56315054  0.84453238  0.20461602     0.06500
C616        C  0.56508306  0.81186949  0.17881502    -0.13200
Br617      Br  0.01784064  0.81809378  0.08629952    -0.05300
Br618      Br  0.53362599  0.64042118  0.17215007     0.00400
Br619      Br  0.96095965  0.85510528  0.25956996     0.00800
Br620      Br  0.60762081  0.79240833  0.14697642    -0.03600
Br621      Br  0.99608175  0.74603441  0.03495275     0.00900
Br622      Br  0.55998897  0.71185816  0.22016341    -0.02900
Br623      Br  0.96449667  0.78201979  0.19496519    -0.03700
Br624      Br  0.60335472  0.87009869  0.20612302     0.00200
loop_ 
_geom_bond_atom_site_label_1 
_geom_bond_atom_site_label_2 
_geom_bond_distance 
_geom_bond_site_symmetry_2 
_ccdc_geom_bond_type 
N1            C2   1.378       .  A
N1          C317   1.368   1_455  A
N1          C253   1.461       .  S
C2          C293   1.497       .  S
C2          C315   1.383   1_455  A
C3            C4   1.362       .  A
C3          C314   1.383       .  A
C3            H6   1.084       .  S
C4            C5   1.378       .  A
C4            H7   1.085       .  S
C5          N313   1.368       .  A
C5          C282   1.484       .  S
N8           C12   1.365       .  A
N8            C9   1.364       .  A
N8          C222   1.444       .  S
C9          C242   1.497   1_556  S
C9           C10   1.383       .  A
C10          C11   1.374       .  A
C10          H13   1.079       .  S
C11          C12   1.382       .  A
C11          H14   1.086       .  S
C12         C193   1.498       .  S
Fe15         O31   2.077       .  S
Fe15         O21   2.079       .  S
Fe15         O28   2.088       .  S
Fe15         O20   2.073       .  S
Fe15         O26   1.966       .  S
Fe16         O19   2.076       .  S
Fe16         O23   2.069       .  S
Fe16         O27   2.059       .  S
Fe16         O32   2.063       .  S
Fe16         O26   1.965       .  S
Fe17         O35   2.064       .  S
Fe17         O22   2.061       .  S
Fe17         O29   2.056       .  S
Fe17         O18   2.076       .  S
Fe17         O26   1.960       .  S
O18          C25   1.269       .  A
O19          C33   1.268       .  A
O20          C25   1.273       .  A
O21          C24   1.270       .  A
O22          C34   1.272       .  A
O23          C36   1.272       .  A
C24         C273   1.486       .  S
C24          O29   1.268       .  A
C25         C213   1.488       .  S
O27          C30   1.266       .  A
O28          C30   1.270       .  A
C30         C153   1.487       .  S
O31          C36   1.275       .  A
O32          C34   1.271       .  A
C33         C262   1.484       .  S
C33          O35   1.265       .  A
C34         C202   1.465       .  S
C36         C173   1.491       .  S
N37          C41   1.373       .  A
N37          C38   1.373       .  A
N37         C133   1.462       .  S
C38         C182   1.489       .  S
C38          C39   1.383       .  A
C39          C40   1.357       .  A
C39          H42   1.084       .  S
C40          C41   1.378       .  A
C40          H43   1.086       .  S
C41         C122   1.487       .  S
N44          C48   1.368       .  A
N44          C45   1.368       .  A
N44          C82   1.450       .  S
C45         C162   1.498       .  S
C45          C46   1.385       .  A
C46          C47   1.371       .  A
C46          H49   1.085       .  S
C47          C48   1.378       .  A
C47          H50   1.083       .  S
C48          C93   1.493       .  S
Fe51         O57   2.050       .  S
Fe51         O64   2.061   1_565  S
Fe51         O56   2.097   1_565  S
Fe51        O379   2.094       .  S
Fe51        O374   1.958       .  S
Fe52         O55   2.095       .  S
Fe52         O59   2.062       .  S
Fe52         O63   2.100       .  S
Fe52         O68   2.054   1_565  S
Fe52         O62   1.955       .  S
Fe53         O71   2.068       .  S
Fe53         O58   2.091   1_565  S
Fe53        O377   2.101   1_455  S
Fe53        O366   2.059   1_465  S
Fe53         O62   1.951       .  S
O54        Fe365   2.059   1_545  S
O54          C61   1.262       .  A
O55          C69   1.274       .  A
O56          C61   1.270       .  A
O57          C60   1.271       .  A
O58          C70   1.277       .  A
O59          C72   1.266       .  A
C60         C113   1.484       .  S
C60          O65   1.280       .  A
C61          C73   1.521       .  S
O62        Fe363   1.958   1_455  S
O63          C66   1.279   1_565  A
O64         C378   1.272       .  A
O65        Fe365   2.101       .  S
C66         C233   1.488       .  S
C66         O376   1.272   1_455  A
O67        Fe363   2.094   1_455  S
O67          C72   1.272       .  A
O68          C70   1.268       .  A
C69         C142   1.487       .  S
C69          O71   1.268       .  A
C70         C102   1.480       .  S
C72         C302   1.494       .  S
C73          C74   1.434       .  A
C73          C78   1.429       .  A
C74          C75   1.414       .  A
C74         Br86   1.935       .  S
C75          C76   1.404       .  A
C75         Br90   1.936       .  S
C76          C79   1.496       .  S
C76          C77   1.406       .  A
C77          C78   1.414       .  A
C77         Br85   1.935       .  S
C78         Br89   1.934       .  S
C79          C80   1.412       .  A
C79          C84   1.408       .  A
C80          C81   1.414       .  A
C80         Br91   1.929       .  S
C81          C82   1.411       .  A
C81         Br87   1.920       .  S
C82          C83   1.415       .  A
C83          C84   1.407       .  A
C83         Br92   1.925       .  S
C84         Br88   1.932       .  S
C93          C94   1.414       .  A
C93          C98   1.417       .  A
C94          C95   1.407       .  A
C94        Br106   1.921       .  S
C95          C96   1.406       .  A
C95        Br110   1.934       .  S
C96          C99   1.486       .  S
C96          C97   1.407       .  A
C97          C98   1.410       .  A
C97        Br105   1.930       .  S
C98        Br109   1.925       .  S
C99         C100   1.409       .  A
C99         C104   1.411       .  A
C100        C101   1.409       .  A
C100       Br111   1.929       .  S
C101        C102   1.414       .  A
C101       Br107   1.931   1_545  S
C102        C103   1.407       .  A
C103        C104   1.406       .  A
C103       Br112   1.926       .  S
C104       Br108   1.931       .  S
C113        C114   1.412       .  A
C113        C118   1.418       .  A
C114        C115   1.408       .  A
C114       Br438   1.932       .  S
C115        C116   1.411       .  A
C115       Br130   1.932       .  S
C116        C119   1.484       .  S
C116        C117   1.405       .  A
C117        C118   1.407       .  A
C117       Br125   1.932       .  S
C118       Br129   1.930       .  S
C119        C120   1.405       .  A
C119        C124   1.409       .  A
C120        C121   1.403       .  A
C120       Br131   1.933       .  S
C121        C122   1.420       .  A
C121       Br127   1.938       .  S
C122        C123   1.413       .  A
C123        C124   1.410       .  A
C123       Br132   1.924       .  S
C124       Br128   1.930       .  S
Br126       C426   1.932       .  S
C133        C134   1.420       .  A
C133        C138   1.417       .  A
C134        C135   1.416       .  A
C134       Br146   1.919       .  S
C135        C136   1.411       .  A
C135       Br150   1.931       .  S
C136        C139   1.500       .  S
C136        C137   1.408       .  A
C137        C138   1.409       .  A
C137       Br145   1.932       .  S
C138       Br149   1.920       .  S
C139        C140   1.415       .  A
C139        C144   1.412       .  A
C140        C141   1.415       .  A
C140       Br151   1.929       .  S
C141        C142   1.409       .  A
C141       Br147   1.927       .  S
C142        C143   1.411       .  A
C143        C144   1.410       .  A
C143       Br152   1.929       .  S
C144       Br148   1.932       .  S
C153        C154   1.413       .  A
C153        C158   1.413       .  A
C154        C155   1.415       .  A
C154       Br166   1.928       .  S
C155        C156   1.410       .  A
C155       Br170   1.927       .  S
C156        C159   1.493       .  S
C156        C157   1.410       .  A
C157        C158   1.407       .  A
C157       Br165   1.932       .  S
C158       Br169   1.933       .  S
C159        C160   1.408       .  A
C159        C164   1.406       .  A
C160        C161   1.414       .  A
C160       Br171   1.929       .  S
C161        C162   1.414       .  A
C161       Br167   1.917       .  S
C162        C163   1.420       .  A
C163        C164   1.409       .  A
C163       Br172   1.930       .  S
C164       Br168   1.932       .  S
C173        C174   1.421       .  A
C173        C178   1.418       .  A
C174        C175   1.409       .  A
C174       Br186   1.933       .  S
C175        C176   1.405       .  A
C175       Br190   1.931       .  S
C176        C179   1.486       .  S
C176        C177   1.409       .  A
C177        C178   1.408       .  A
C177       Br185   1.934       .  S
C178       Br189   1.934       .  S
C179        C180   1.409       .  A
C179        C184   1.404       .  A
C180        C181   1.412       .  A
C180       Br191   1.929       .  S
C181        C182   1.413       .  A
C181       Br187   1.921       .  S
C182        C183   1.421       .  A
C183        C184   1.404       .  A
C183       Br192   1.937       .  S
C184       Br188   1.934       .  S
C193        C194   1.423       .  A
C193        C198   1.416       .  A
C194        C195   1.405       .  A
C194       Br206   1.929       .  S
C195        C196   1.403       .  A
C195       Br210   1.936       .  S
C196        C199   1.479       .  S
C196        C197   1.405       .  A
C197        C198   1.408       .  A
C197       Br205   1.932       .  S
C198       Br209   1.918       .  S
C199        C200   1.409       .  A
C199        C204   1.410       .  A
C200        C201   1.405       .  A
C200       Br211   1.929       .  S
C201        C202   1.408       .  A
C201       Br207   1.931       .  S
C202        C203   1.408       .  A
C203        C204   1.404       .  A
C203       Br212   1.931       .  S
C204       Br208   1.931       .  S
C213        C214   1.416       .  A
C213        C218   1.415       .  A
C214        C215   1.411       .  A
C214       Br226   1.931       .  S
C215        C216   1.409       .  A
C215       Br230   1.929       .  S
C216        C219   1.490       .  S
C216        C217   1.409       .  A
C217        C218   1.409       .  A
C217       Br225   1.929       .  S
C218       Br229   1.932       .  S
C219        C220   1.411       .  A
C219        C224   1.407       .  A
C220        C533   1.413       .  A
C220       Br231   1.928       .  S
C221        C222   1.408       .  A
C221        C532   1.413   1_455  A
C221       Br227   1.921   1_556  S
C222        C535   1.417       .  A
C223        C224   1.406       .  A
C223        C534   1.417       .  A
C223       Br232   1.938       .  S
C224       Br228   1.931       .  S
C233        C234   1.413       .  A
C233        C238   1.415       .  A
C234        C235   1.408       .  A
C234       Br246   1.930   1_545  S
C235        C236   1.410       .  A
C235       Br250   1.932       .  S
C236        C239   1.491       .  S
C236        C237   1.410       .  A
C237        C238   1.411       .  A
C237       Br557   1.930   1_455  S
C238       Br561   1.930   1_455  S
C239        C240   1.406       .  A
C239        C244   1.409       .  A
C240        C241   1.407       .  A
C240       Br251   1.933       .  S
C241        C242   1.415       .  A
C241       Br247   1.918       .  S
C242        C243   1.415       .  A
C243        C244   1.413       .  A
C243       Br564   1.917   1_454  S
C244       Br560   1.931   1_455  S
Br245       C549   1.930       .  S
Br248       C556   1.931       .  S
Br249       C550   1.930       .  S
Br252       C555   1.917   1_556  S
C253        C254   1.419       .  A
C253        C258   1.423   1_554  A
C254        C255   1.412       .  A
C254       Br266   1.917       .  S
C255        C256   1.406   1_554  A
C255       Br270   1.934       .  S
C256        C259   1.495       .  S
C256        C257   1.405       .  A
C257        C258   1.414       .  A
C257       Br265   1.932       .  S
C258       Br269   1.919   1_455  S
C259        C260   1.411       .  A
C259        C264   1.412       .  A
C260        C261   1.412       .  A
C260       Br271   1.928       .  S
C261        C262   1.412       .  A
C261       Br267   1.929       .  S
C262        C263   1.411       .  A
C263        C264   1.410       .  A
C263       Br272   1.931       .  S
C264       Br268   1.931       .  S
C273        C274   1.418       .  A
C273        C278   1.419       .  A
C274        C275   1.404       .  A
C274       Br286   1.936       .  S
C275        C276   1.407       .  A
C275       Br290   1.935   1_556  S
C276        C279   1.482       .  S
C276        C277   1.406       .  A
C277        C278   1.410       .  A
C277       Br285   1.930       .  S
C278       Br289   1.933       .  S
C279        C280   1.405       .  A
C279        C284   1.408       .  A
C280        C281   1.404       .  A
C280       Br291   1.932       .  S
C281        C282   1.417   1_556  A
C281       Br287   1.936   1_556  S
C282        C283   1.412   1_554  A
C283        C284   1.408       .  A
C283       Br292   1.923   1_556  S
C284       Br288   1.931       .  S
C293        C294   1.424       .  A
C293        C610   1.417       .  A
C294        C295   1.410       .  A
C294       Br306   1.933       .  S
C295        C296   1.405       .  A
C295       Br310   1.933       .  S
C296        C299   1.493       .  S
C296        C297   1.406       .  A
C297        C610   1.412       .  A
C297       Br617   1.932       .  S
C298        C605   1.417       .  A
C298        C609   1.412       .  A
C298       Br309   1.918       .  S
C299        C304   1.407       .  A
C299        C612   1.410       .  A
C300        C301   1.409       .  A
C300        C611   1.410       .  A
C300       Br311   1.933       .  S
C301        C614   1.416       .  A
C301       Br307   1.933       .  S
C302        C303   1.420       .  A
C302        C613   1.416       .  A
C303        C304   1.412       .  A
C303       Br312   1.932       .  S
C304       Br308   1.929       .  S
Br305       C609   1.932       .  S
N313        C314   1.378       .  A
N313        C565   1.461       .  S
C314        C605   1.497       .  S
C315        C316   1.362       .  A
C315        H318   1.084       .  S
C316        C317   1.378       .  A
C316        H319   1.085       .  S
C317        C594   1.484       .  S
N320        C324   1.365       .  A
N320        C321   1.364       .  A
N320        C534   1.444       .  S
C321        C554   1.497   1_556  S
C321        C322   1.383       .  A
C322        C323   1.374       .  A
C322        H325   1.079       .  S
C323        C324   1.382       .  A
C323        H326   1.086       .  S
C324        C505   1.498       .  S
Fe327       O343   2.077       .  S
Fe327       O333   2.079       .  S
Fe327       O340   2.088       .  S
Fe327       O332   2.073       .  S
Fe327       O338   1.966       .  S
Fe328       O331   2.076       .  S
Fe328       O335   2.069       .  S
Fe328       O339   2.059       .  S
Fe328       O344   2.063       .  S
Fe328       O338   1.965       .  S
Fe329       O347   2.064       .  S
Fe329       O334   2.061       .  S
Fe329       O341   2.056       .  S
Fe329       O330   2.076       .  S
Fe329       O338   1.960       .  S
O330        C337   1.269       .  A
O331        C345   1.268       .  A
O332        C337   1.273       .  A
O333        C336   1.270       .  A
O334        C346   1.272       .  A
O335        C348   1.272       .  A
C336        C585   1.486       .  S
C336        O341   1.268       .  A
C337        C525   1.488       .  S
O339        C342   1.266       .  A
O340        C342   1.270       .  A
C342        C465   1.487       .  S
O343        C348   1.275       .  A
O344        C346   1.271       .  A
C345        C574   1.484       .  S
C345        O347   1.265       .  A
C346        C514   1.465       .  S
C348        C485   1.491       .  S
N349        C353   1.373       .  A
N349        C350   1.373       .  A
N349        C445   1.462       .  S
C350        C494   1.489       .  S
C350        C351   1.383       .  A
C351        C352   1.357       .  A
C351        H354   1.084       .  S
C352        C353   1.378       .  A
C352        H355   1.086       .  S
C353        C434   1.487       .  S
N356        C360   1.368       .  A
N356        C357   1.368       .  A
N356        C394   1.450       .  S
C357        C474   1.498       .  S
C357        C358   1.385       .  A
C358        C359   1.371       .  A
C358        H361   1.085       .  S
C359        C360   1.378       .  A
C359        H362   1.083       .  S
C360        C405   1.493       .  S
Fe363       O369   2.050       .  S
Fe363       O376   2.061   1_565  S
Fe363       O368   2.097   1_565  S
Fe364       O367   2.095       .  S
Fe364       O371   2.062       .  S
Fe364       O375   2.100       .  S
Fe364       O380   2.054   1_565  S
Fe364       O374   1.955       .  S
Fe365       O383   2.068       .  S
Fe365       O370   2.091   1_565  S
Fe365       O374   1.951       .  S
O366        C373   1.262       .  A
O367        C381   1.274       .  A
O368        C373   1.270       .  A
O369        C372   1.271       .  A
O370        C382   1.277       .  A
O371        C384   1.266       .  A
C372        C425   1.484       .  S
C372        O377   1.280       .  A
C373        C385   1.521       .  S
O375        C378   1.279   1_565  A
C378        C545   1.488       .  S
O379        C384   1.272       .  A
O380        C382   1.268       .  A
C381        C454   1.487       .  S
C381        O383   1.268       .  A
C382        C414   1.480       .  S
C384        C614   1.494       .  S
C385        C386   1.434       .  A
C385        C390   1.429       .  A
C386        C387   1.414       .  A
C386       Br398   1.935       .  S
C387        C388   1.404       .  A
C387       Br402   1.936       .  S
C388        C391   1.496       .  S
C388        C389   1.406       .  A
C389        C390   1.414       .  A
C389       Br397   1.935       .  S
C390       Br401   1.934       .  S
C391        C392   1.412       .  A
C391        C396   1.408       .  A
C392        C393   1.414       .  A
C392       Br403   1.929       .  S
C393        C394   1.411       .  A
C393       Br399   1.920       .  S
C394        C395   1.415       .  A
C395        C396   1.407       .  A
C395       Br404   1.925       .  S
C396       Br400   1.932       .  S
C405        C406   1.414       .  A
C405        C410   1.417       .  A
C406        C407   1.407       .  A
C406       Br418   1.921       .  S
C407        C408   1.406       .  A
C407       Br422   1.934       .  S
C408        C411   1.486       .  S
C408        C409   1.407       .  A
C409        C410   1.410       .  A
C409       Br417   1.930       .  S
C410       Br421   1.925       .  S
C411        C412   1.409       .  A
C411        C416   1.411       .  A
C412        C413   1.409       .  A
C412       Br423   1.929       .  S
C413        C414   1.414       .  A
C413       Br419   1.931   1_545  S
C414        C415   1.407       .  A
C415        C416   1.406       .  A
C415       Br424   1.926       .  S
C416       Br420   1.931       .  S
C425        C426   1.412       .  A
C425        C430   1.418       .  A
C426        C427   1.408       .  A
C427        C428   1.411       .  A
C427       Br442   1.932       .  S
C428        C431   1.484       .  S
C428        C429   1.405       .  A
C429        C430   1.407       .  A
C429       Br437   1.932       .  S
C430       Br441   1.930       .  S
C431        C432   1.405       .  A
C431        C436   1.409       .  A
C432        C433   1.403       .  A
C432       Br443   1.933       .  S
C433        C434   1.420       .  A
C433       Br439   1.938       .  S
C434        C435   1.413       .  A
C435        C436   1.410       .  A
C435       Br444   1.924       .  S
C436       Br440   1.930       .  S
C445        C446   1.420       .  A
C445        C450   1.417       .  A
C446        C447   1.416       .  A
C446       Br458   1.919       .  S
C447        C448   1.411       .  A
C447       Br462   1.931       .  S
C448        C451   1.500       .  S
C448        C449   1.408       .  A
C449        C450   1.409       .  A
C449       Br457   1.932       .  S
C450       Br461   1.920       .  S
C451        C452   1.415       .  A
C451        C456   1.412       .  A
C452        C453   1.415       .  A
C452       Br463   1.929       .  S
C453        C454   1.409       .  A
C453       Br459   1.927       .  S
C454        C455   1.411       .  A
C455        C456   1.410       .  A
C455       Br464   1.929       .  S
C456       Br460   1.932       .  S
C465        C466   1.413       .  A
C465        C470   1.413       .  A
C466        C467   1.415       .  A
C466       Br478   1.928       .  S
C467        C468   1.410       .  A
C467       Br482   1.927       .  S
C468        C471   1.493       .  S
C468        C469   1.410       .  A
C469        C470   1.407       .  A
C469       Br477   1.932       .  S
C470       Br481   1.933       .  S
C471        C472   1.408       .  A
C471        C476   1.406       .  A
C472        C473   1.414       .  A
C472       Br483   1.929       .  S
C473        C474   1.414       .  A
C473       Br479   1.917       .  S
C474        C475   1.420       .  A
C475        C476   1.409       .  A
C475       Br484   1.930       .  S
C476       Br480   1.932       .  S
C485        C486   1.421       .  A
C485        C490   1.418       .  A
C486        C487   1.409       .  A
C486       Br498   1.933       .  S
C487        C488   1.405       .  A
C487       Br502   1.931       .  S
C488        C491   1.486       .  S
C488        C489   1.409       .  A
C489        C490   1.408       .  A
C489       Br497   1.934       .  S
C490       Br501   1.934       .  S
C491        C492   1.409       .  A
C491        C496   1.404       .  A
C492        C493   1.412       .  A
C492       Br503   1.929       .  S
C493        C494   1.413       .  A
C493       Br499   1.921       .  S
C494        C495   1.421       .  A
C495        C496   1.404       .  A
C495       Br504   1.937       .  S
C496       Br500   1.934       .  S
C505        C506   1.423       .  A
C505        C510   1.416       .  A
C506        C507   1.405       .  A
C506       Br518   1.929       .  S
C507        C508   1.403       .  A
C507       Br522   1.936       .  S
C508        C511   1.479       .  S
C508        C509   1.405       .  A
C509        C510   1.408       .  A
C509       Br517   1.932       .  S
C510       Br521   1.918       .  S
C511        C512   1.409       .  A
C511        C516   1.410       .  A
C512        C513   1.405       .  A
C512       Br523   1.929       .  S
C513        C514   1.408       .  A
C513       Br519   1.931       .  S
C514        C515   1.408       .  A
C515        C516   1.404       .  A
C515       Br524   1.931       .  S
C516       Br520   1.931       .  S
C525        C526   1.416       .  A
C525        C530   1.415       .  A
C526        C527   1.411       .  A
C526       Br538   1.931       .  S
C527        C528   1.409       .  A
C527       Br542   1.929       .  S
C528        C531   1.490       .  S
C528        C529   1.409       .  A
C529        C530   1.409       .  A
C529       Br537   1.929       .  S
C530       Br541   1.932       .  S
C531        C532   1.411       .  A
C531        C536   1.407       .  A
C532       Br543   1.928       .  S
C533        C534   1.408       .  A
C533       Br539   1.921   1_556  S
C535        C536   1.406   1_455  A
C535       Br544   1.938       .  S
C536       Br540   1.931       .  S
C545        C546   1.413       .  A
C545        C550   1.415       .  A
C546        C547   1.408       .  A
C546       Br558   1.930   1_545  S
C547        C548   1.410       .  A
C547       Br562   1.932       .  S
C548        C551   1.491       .  S
C548        C549   1.410       .  A
C549        C550   1.411       .  A
C551        C552   1.406       .  A
C551        C556   1.409       .  A
C552        C553   1.407       .  A
C552       Br563   1.933       .  S
C553        C554   1.415       .  A
C553       Br559   1.918       .  S
C554        C555   1.415       .  A
C555        C556   1.413       .  A
C565        C566   1.419       .  A
C565        C570   1.423   1_554  A
C566        C567   1.412       .  A
C566       Br578   1.917       .  S
C567        C568   1.406   1_554  A
C567       Br582   1.934       .  S
C568        C571   1.495       .  S
C568        C569   1.405       .  A
C569        C570   1.414       .  A
C569       Br577   1.932       .  S
C570       Br581   1.919       .  S
C571        C572   1.411       .  A
C571        C576   1.412       .  A
C572        C573   1.412       .  A
C572       Br583   1.928       .  S
C573        C574   1.412       .  A
C573       Br579   1.929       .  S
C574        C575   1.411       .  A
C575        C576   1.410       .  A
C575       Br584   1.931       .  S
C576       Br580   1.931       .  S
C585        C586   1.418       .  A
C585        C590   1.419       .  A
C586        C587   1.404       .  A
C586       Br598   1.936       .  S
C587        C588   1.407       .  A
C587       Br602   1.935   1_556  S
C588        C591   1.482       .  S
C588        C589   1.406       .  A
C589        C590   1.410       .  A
C589       Br597   1.930       .  S
C590       Br601   1.933       .  S
C591        C592   1.405       .  A
C591        C596   1.408       .  A
C592        C593   1.404       .  A
C592       Br603   1.932       .  S
C593        C594   1.417   1_556  A
C593       Br599   1.936   1_556  S
C594        C595   1.412   1_554  A
C595        C596   1.408       .  A
C595       Br604   1.923   1_656  S
C596       Br600   1.931       .  S
C605        C606   1.424       .  A
C606        C607   1.410       .  A
C606       Br618   1.933       .  S
C607        C608   1.405       .  A
C607       Br622   1.933       .  S
C608        C611   1.493       .  S
C608        C609   1.406       .  A
C610       Br621   1.918   1_455  S
C611        C616   1.407       .  A
C612        C613   1.409       .  A
C612       Br623   1.933   1_455  S
C613       Br619   1.933   1_455  S
C614        C615   1.420       .  A
C615        C616   1.412       .  A
C615       Br624   1.932       .  S
C616       Br620   1.929       .  S
