geometry optimzed in LAMMPS
_audit_creation_date              2020-11-30 
_audit_creation_method            'lammps2cif' 
_symmetry_space_group_name_H-M    'P1' 
_symmetry_Int_Tables_number       1 
_symmetry_cell_setting            triclinic 
loop_ 
_symmetry_equiv_pos_as_xyz 
  x,y,z 
_cell_length_a                    57.86307238 
_cell_length_b                    56.931094573001566 
_cell_length_c                    35.566315178364945 
_cell_angle_alpha                 89.32448645847235 
_cell_angle_beta                  87.9260332187943 
_cell_angle_gamma                 120.500213222144 
loop_ 
_atom_site_label 
_atom_site_type_symbol 
_atom_site_fract_x 
_atom_site_fract_y 
_atom_site_fract_z 
_atom_site_charge 
O1          O  0.82381660  0.34696924  0.07354517    -0.80500
O2          O  0.81817338  0.33587626  0.24920516    -0.65200
O3          O  0.83967168  0.36234486  0.14768325    -1.11800
C4          C  0.86691722  0.29612029  0.14054656     1.06400
O5          O  0.85326628  0.33076575  0.25873570    -0.78400
O6          O  0.89123547  0.34443532  0.20437148    -0.66000
Ni7        Ni  0.81547967  0.36385320  0.11432367     1.34900
C8          C  0.90056793  0.36346254  0.17925950     0.85100
O9          O  0.81727752  0.37587085  0.20874077    -0.79000
O10         O  0.80544458  0.38164060  0.15123509    -0.89200
C11         C  0.83433827  0.33432632  0.27090500     0.84700
O12         O  0.78499070  0.32912697  0.12805284    -0.67500
O13         O  0.86389747  0.29311597  0.17633416    -0.86700
C14         C  0.77651259  0.31596850  0.15930677     0.85500
C15         C  0.80776657  0.38631781  0.18630638     1.07100
H16         H  0.82085588  0.30511882  0.18022143     0.38900
O17         O  0.83715042  0.32217533  0.18401475    -1.09400
O18         O  0.88728455  0.36372934  0.15152805    -0.66000
Ni19       Ni  0.85174294  0.33794558  0.13498739     1.26300
O20         O  0.79040129  0.32269187  0.18837323    -0.66300
O21         O  0.86302568  0.31284845  0.12200377    -0.78600
C22         C  0.84633042  0.34998352  0.06243558     0.84900
O23         O  0.86388163  0.35372112  0.08560679    -0.65700
Ni24       Ni  0.85742820  0.31268196  0.21566498     1.27400
Ni25       Ni  0.82738644  0.34881589  0.19804836     1.26100
H26         H  0.85495903  0.38060197  0.14863149     0.39400
O27         O  0.82771356  0.34468607  0.57421350    -0.80500
O28         O  0.81254295  0.32482318  0.74916681    -0.65200
O29         O  0.83990011  0.35530605  0.65055417    -1.11800
C30         C  0.86091126  0.28438368  0.64195288     1.06400
O31         O  0.84630255  0.31801899  0.76091278    -0.78400
O32         O  0.88643457  0.33096821  0.70959337    -0.66000
Ni33       Ni  0.81768834  0.35941953  0.61596122     1.34900
C34         C  0.89771836  0.35077010  0.68560931     0.85100
O35         O  0.81581814  0.36762026  0.71114000    -0.79000
O36         O  0.80604337  0.37552332  0.65345042    -0.89200
C37         C  0.82731194  0.32189501  0.77194793     0.84700
O38         O  0.78634464  0.32441666  0.62534007    -0.67500
O39         O  0.85699150  0.28063987  0.67767490    -0.86700
C40         C  0.77594358  0.31047685  0.65570869     0.85500
C41         C  0.80714192  0.37894357  0.68884874     1.07100
H42         H  0.81697303  0.29628566  0.67930818     0.38900
O43         O  0.83346420  0.31264901  0.68486388    -1.09400
O44         O  0.88579870  0.35300515  0.65737069    -0.66000
Ni45       Ni  0.85056151  0.32974690  0.63743511     1.26300
O46         O  0.78826851  0.31582873  0.68611799    -0.66300
O47         O  0.85981046  0.30315698  0.62401382    -0.78600
C48         C  0.85022016  0.34704588  0.56474607     0.84900
O49         O  0.86556584  0.34710062  0.58931219    -0.65700
Ni50       Ni  0.85101565  0.30038215  0.71753782     1.27400
Ni51       Ni  0.82482626  0.33992906  0.69951739     1.26100
H52         H  0.85564510  0.37303854  0.65327860     0.39400
O53         O  0.51755789  0.17402391  0.09423042    -0.80500
O54         O  0.51422539  0.17209641  0.27067604    -0.65200
O55         O  0.51762385  0.15475688  0.16795551    -1.11800
C56         C  0.42520452  0.12932922  0.17249648     1.06400
O57         O  0.47475117  0.13427755  0.28133718    -0.78400
O58         O  0.44627202  0.09916408  0.22964192    -0.66000
Ni59       Ni  0.54337333  0.18055690  0.13200728     1.34900
C60         C  0.45607970  0.09112733  0.20380563     0.85100
O61         O  0.55407727  0.17433993  0.22504174    -0.79000
O62         O  0.57145160  0.18848931  0.16570440    -0.89200
C63         C  0.49578050  0.15454807  0.29323436     0.84700
O64         O  0.54176158  0.21182072  0.14748264    -0.67500
O65         O  0.42625400  0.13162167  0.20810611    -0.86700
C66         C  0.53807165  0.21897404  0.17982371     0.85500
C67         C  0.57385390  0.18486570  0.20058441     1.07100
H68         H  0.48118217  0.17279837  0.20566702     0.38900
O69         O  0.48131048  0.15598525  0.20877929    -1.09400
O70         O  0.47094407  0.10654481  0.17625162    -0.66000
Ni71       Ni  0.48124071  0.14322460  0.15963740     1.26300
O72         O  0.52978749  0.20297889  0.20871656    -0.66300
O73         O  0.44476745  0.13227221  0.15139159    -0.78600
C74         C  0.49764263  0.15129423  0.08525090     0.84900
O75         O  0.48363527  0.13280640  0.10994469    -0.65700
Ni76       Ni  0.45189462  0.13388540  0.24327171     1.27400
Ni77       Ni  0.51733001  0.16490256  0.21872274     1.26100
H78         H  0.51994859  0.13910339  0.16810257     0.39400
O79         O  0.51494651  0.18545074  0.59331966    -0.80500
O80         O  0.51361177  0.17036202  0.76670804    -0.65200
O81         O  0.51510496  0.16084001  0.66156466    -1.11800
C82         C  0.42181166  0.12534282  0.66635314     1.06400
O83         O  0.47001796  0.14399662  0.78290871    -0.78400
O84         O  0.45808913  0.10646864  0.72942659    -0.66000
Ni85       Ni  0.54077968  0.19010437  0.62929880     1.34900
C86         C  0.46248857  0.09841765  0.69819367     0.85100
O87         O  0.55122956  0.17431939  0.71757325    -0.79000
O88         O  0.56898296  0.19663051  0.66182154    -0.89200
C89         C  0.49438385  0.15878431  0.79115295     0.84700
O90         O  0.53672309  0.21838385  0.65090933    -0.67500
O91         O  0.42275493  0.11995693  0.70079514    -0.86700
C92         C  0.53430964  0.22297557  0.68519972     0.85500
C93         C  0.57121900  0.18837071  0.69428890     1.07100
H94         H  0.47848322  0.17643939  0.70647837     0.38900
O95         O  0.47860459  0.15953842  0.70606173    -1.09400
O96         O  0.46817300  0.11227634  0.66704994    -0.66000
Ni97       Ni  0.47889230  0.15008775  0.65422760     1.26300
O98         O  0.52798096  0.20519326  0.71140874    -0.66300
O99         O  0.44274556  0.14023904  0.64579847    -0.78600
C100        C  0.49785456  0.16279446  0.58035115     0.84900
O101        O  0.48213965  0.14287501  0.60246780    -0.65700
Ni102      Ni  0.44918530  0.13363984  0.73882463     1.27400
Ni103      Ni  0.51482166  0.16659534  0.71380011     1.26100
H104        H  0.51766639  0.14550947  0.65782819     0.39400
O105        O  0.66703017  0.49615661  0.06535027    -0.80500
O106        O  0.66630900  0.48850026  0.23891461    -0.65200
O107        O  0.64538462  0.48854765  0.13889568    -1.11800
C108        C  0.70537823  0.58495983  0.14127344     1.06400
O109        O  0.66481277  0.52565948  0.25315152    -0.78400
O110        O  0.65363386  0.55362589  0.20372194    -0.66000
Ni111      Ni  0.64881840  0.46655211  0.10207220     1.34900
C112        C  0.63580834  0.54347167  0.17949547     0.85100
O113        O  0.63148723  0.44839510  0.19528994    -0.79000
O114        O  0.63012363  0.43513633  0.13550516    -0.89200
C115        C  0.66431847  0.50378656  0.26284085     0.84700
O116        O  0.68284584  0.47149269  0.11470792    -0.67500
O117        O  0.70636057  0.58186538  0.17669737    -0.86700
C118        C  0.69366325  0.47473430  0.14606076     0.85500
C119        C  0.62368716  0.42990784  0.17064857     1.07100
H120        H  0.69828070  0.52856922  0.17268017     0.38900
O121        O  0.68052533  0.52578781  0.17769000    -1.09400
O122        O  0.63808158  0.53170979  0.15034295    -0.66000
Ni123      Ni  0.66711248  0.52692272  0.12987999     1.26300
O124        O  0.68467471  0.48012280  0.17580365    -0.66300
O125        O  0.68991977  0.56556129  0.12067389    -0.78600
C126        C  0.65997856  0.51318667  0.05605243     0.84900
O127        O  0.65393453  0.52515466  0.08100978    -0.65700
Ni128      Ni  0.68514824  0.55239350  0.21320426     1.27400
Ni129      Ni  0.65617183  0.48735901  0.18830830     1.26100
H130        H  0.62671522  0.48353296  0.14062469     0.39400
O131        O  0.66348283  0.48527386  0.56620249    -0.80500
O132        O  0.67449599  0.49345767  0.74107184    -0.65200
O133        O  0.64878783  0.48592335  0.64262688    -1.11800
C134        C  0.71253280  0.58089497  0.62728546     1.06400
O135        O  0.67912985  0.53429888  0.74964460    -0.78400
O136        O  0.66578825  0.55833395  0.69687708    -0.66000
Ni137      Ni  0.65025443  0.46055462  0.60982735     1.34900
C138        C  0.64623162  0.54677764  0.67545615     0.85100
O139        O  0.63534270  0.45145054  0.70515693    -0.79000
O140        O  0.63543189  0.43292220  0.64949123    -0.89200
C141        C  0.67604911  0.51183547  0.76236493     0.84700
O142        O  0.68623341  0.46965944  0.61918480    -0.67500
O143        O  0.71641706  0.58147477  0.66245039    -0.86700
C144        C  0.69669439  0.47200781  0.65067596     0.85500
C145        C  0.62783092  0.43094227  0.68418831     1.07100
H146        H  0.70472830  0.52610686  0.66794640     0.38900
O147        O  0.68794385  0.52531510  0.67406231    -1.09400
O148        O  0.64553845  0.53174878  0.64860760    -0.66000
Ni149      Ni  0.67156836  0.52291527  0.62747481     1.26300
O150        O  0.68755173  0.47707980  0.68054889    -0.66300
O151        O  0.69509016  0.55984955  0.61140231    -0.78600
C152        C  0.65736467  0.50302685  0.55674480     0.84900
O153        O  0.65490398  0.51783565  0.58094069    -0.65700
Ni154      Ni  0.69702651  0.55608972  0.70438547     1.27400
Ni155      Ni  0.66193996  0.48867398  0.69150137     1.26100
H156        H  0.63038979  0.48178216  0.64499462     0.39400
O157        O  0.31927114  0.79616782  0.38384021    -0.80500
O158        O  0.31617489  0.80406260  0.21764567    -0.65200
O159        O  0.34118639  0.82341601  0.31547618    -1.11800
C160        C  0.28158312  0.85615890  0.32777092     1.06400
O161        O  0.31298519  0.84075680  0.20496995    -0.78400
O162        O  0.33706491  0.87795984  0.25840877    -0.66000
Ni163      Ni  0.34513954  0.79856399  0.34641127     1.34900
C164        C  0.34953587  0.88596279  0.28858405     0.85100
O165        O  0.35400131  0.80059298  0.25480694    -0.79000
O166        O  0.37122181  0.80012059  0.31056784    -0.89200
C167        C  0.31417991  0.82000254  0.19465319     0.84700
O168        O  0.31879700  0.76432551  0.32675851    -0.67500
O169        O  0.28734247  0.86198478  0.29264643    -0.86700
C170        C  0.30194615  0.75838254  0.30140384     0.85500
C171        C  0.37002801  0.79708923  0.27504823     1.07100
H172        H  0.28561063  0.80828006  0.28366215     0.38900
O173        O  0.30351863  0.82403785  0.28159627    -1.09400
O174        O  0.34181935  0.87152604  0.31936550    -0.66000
Ni175      Ni  0.31556987  0.83313945  0.33165365     1.26300
O176        O  0.30140786  0.77628626  0.28075214    -0.66300
O177        O  0.28924462  0.84241926  0.34654772    -0.78600
C178        C  0.32261961  0.81697348  0.40112246     0.84900
O179        O  0.32695918  0.83826838  0.38264141    -0.65700
Ni180      Ni  0.30117251  0.85026270  0.25099306     1.27400
Ni181      Ni  0.32875489  0.81285648  0.26683504     1.26100
H182        H  0.35867517  0.83974335  0.31269062     0.39400
O183        O  0.32290376  0.80916018  0.88833129    -0.80500
O184        O  0.33192950  0.82130513  0.71086966    -0.65200
O185        O  0.34654108  0.83054502  0.81542169    -1.11800
C186        C  0.28651344  0.86472599  0.82058404     1.06400
O187        O  0.33006097  0.85934072  0.70463078    -0.78400
O188        O  0.33977470  0.89246210  0.76079308    -0.66000
Ni189      Ni  0.34065099  0.80096666  0.84752894     1.34900
C190        C  0.35654820  0.89770011  0.78598132     0.85100
O191        O  0.36536808  0.81350600  0.75521709    -0.79000
O192        O  0.35940611  0.79131701  0.81107543    -0.89200
C193        C  0.33295114  0.84049788  0.69074198     0.84700
O194        O  0.30651206  0.77453203  0.82967062    -0.67500
O195        O  0.28639143  0.86459663  0.78472728    -0.86700
C196        C  0.29940751  0.76929806  0.79595795     0.85500
C197        C  0.37035889  0.79907853  0.77791456     1.07100
H198        H  0.29505228  0.81856945  0.77881073     0.38900
O199        O  0.31259594  0.83485069  0.77672203    -1.09400
O200        O  0.35307972  0.88081552  0.81246355    -0.66000
Ni201      Ni  0.32391680  0.84460883  0.82686595     1.26300
O202        O  0.31144867  0.78632993  0.76862762    -0.66300
O203        O  0.30060543  0.85804377  0.83927061    -0.78600
C204        C  0.32893854  0.83267884  0.89970559     0.84900
O205        O  0.33557406  0.85229748  0.87656308    -0.65700
Ni206      Ni  0.30856128  0.86041403  0.74631989     1.27400
Ni207      Ni  0.33888181  0.82441484  0.76367106     1.26100
H208        H  0.36509406  0.84475263  0.81703899     0.39400
O209        O  0.16899529  0.49844306  0.39256185    -0.80500
O210        O  0.16345245  0.48598868  0.21632344    -0.65200
O211        O  0.15329117  0.49892066  0.31892104    -1.11800
C212        C  0.11274875  0.40254879  0.33705931     1.06400
O213        O  0.12568662  0.44543359  0.21555637    -0.78400
O214        O  0.09110496  0.42481012  0.27455981    -0.66000
Ni215      Ni  0.18279502  0.52205978  0.34766576     1.34900
C216        C  0.08617688  0.44094039  0.29294146     0.85100
O217        O  0.17436858  0.53151848  0.25460355    -0.79000
O218        O  0.19820861  0.54840741  0.30638088    -0.89200
C219        C  0.14464704  0.46673314  0.19884091     0.84700
O220        O  0.20454913  0.50679053  0.33336471    -0.67500
O221        O  0.11876645  0.40129364  0.30264791    -0.86700
C222        C  0.21115225  0.50426831  0.29981405     0.85500
C223        C  0.19208756  0.55131057  0.27310188     1.07100
H224        H  0.16224746  0.45457960  0.29114973     0.38900
O225        O  0.14696462  0.45661056  0.28681551    -1.09400
O226        O  0.10218869  0.45773421  0.31617258    -0.66000
Ni227      Ni  0.13496943  0.46181165  0.33494339     1.26300
O228        O  0.19658101  0.50137332  0.27233151    -0.66300
O229        O  0.11630904  0.42432542  0.35153482    -0.78600
C230        C  0.14465095  0.48358320  0.40499642     0.84900
O231        O  0.12594764  0.47002142  0.38293774    -0.65700
Ni232      Ni  0.12335917  0.42511477  0.26041472     1.27400
Ni233      Ni  0.16011061  0.49349104  0.26818463     1.26100
H234        H  0.14099924  0.50572111  0.31953732     0.39400
O235        O  0.17087615  0.49534022  0.89489619    -0.80500
O236        O  0.17451613  0.50304450  0.72181618    -0.65200
O237        O  0.15410297  0.50092597  0.82496943    -1.11800
C238        C  0.12487278  0.40601907  0.82258522     1.06400
O239        O  0.14029567  0.46213135  0.70909729    -0.78400
O240        O  0.10166385  0.43384937  0.76235959    -0.66000
Ni241      Ni  0.17960228  0.52452650  0.85904316     1.34900
C242        C  0.09221048  0.44193249  0.78865815     0.85100
O243        O  0.17572313  0.54093844  0.76772254    -0.79000
O244        O  0.18924447  0.55534097  0.82607022    -0.89200
C245        C  0.15907730  0.48599771  0.69876929     0.84700
O246        O  0.21035482  0.52278311  0.84110331    -0.67500
O247        O  0.12879637  0.40889648  0.78688775    -0.86700
C248        C  0.21776848  0.52062629  0.80792915     0.85500
C249        C  0.18592710  0.55972162  0.79187835     1.07100
H250        H  0.17181020  0.46484892  0.78706335     0.38900
O251        O  0.15555249  0.46538843  0.78412102    -1.09400
O252        O  0.10543828  0.45423570  0.81733539    -0.66000
Ni253      Ni  0.14072528  0.46312365  0.83406347     1.26300
O254        O  0.20245467  0.51413325  0.78062229    -0.66300
O255        O  0.12809789  0.42527192  0.84353315    -0.78600
C256        C  0.14714501  0.47843507  0.90757147     0.84900
O257        O  0.12905832  0.46429189  0.88486178    -0.65700
Ni258      Ni  0.13549386  0.43725754  0.75009317     1.27400
Ni259      Ni  0.16549357  0.50293209  0.77385088     1.26100
H260        H  0.13928033  0.50422963  0.82606870     0.39400
O261        O  0.46491055  0.65390807  0.38840176    -0.80500
O262        O  0.47508945  0.64612563  0.21950543    -0.65200
O263        O  0.46784302  0.62855118  0.32387318    -1.11800
C264        C  0.55986601  0.68607382  0.33029234     1.06400
O265        O  0.51938743  0.66485810  0.20802911    -0.78400
O266        O  0.52343080  0.63257950  0.26165232    -0.66000
Ni267      Ni  0.44017688  0.62866133  0.35424653     1.34900
C268        C  0.52063312  0.62031881  0.29306588     0.85100
O269        O  0.43401586  0.60903484  0.26432833    -0.79000
O270        O  0.41410883  0.60307061  0.32229856    -0.89200
C271        C  0.49570498  0.65619449  0.19722585     0.84700
O272        O  0.43837677  0.65816008  0.33067503    -0.67500
O273        O  0.56054110  0.67834029  0.29698895    -0.86700
C274        C  0.44773121  0.67078412  0.29916361     0.85500
C275        C  0.41359997  0.59705714  0.28775577     1.07100
H276        H  0.50804643  0.68392543  0.28282721     0.38900
O277        O  0.50684243  0.66636772  0.28359041    -1.09400
O278        O  0.51526891  0.62829710  0.32437893    -0.66000
Ni279      Ni  0.50327099  0.65476519  0.33527133     1.26300
O280        O  0.46031902  0.66453234  0.27537907    -0.66300
O281        O  0.53839862  0.68225273  0.34641530    -0.78600
C282        C  0.48083105  0.64920330  0.40615018     0.84900
O283        O  0.49683555  0.64371030  0.38799982    -0.65700
Ni284      Ni  0.53720068  0.67036119  0.25478766     1.27400
Ni285      Ni  0.47084183  0.63764960  0.27204440     1.26100
H286        H  0.46553240  0.61055817  0.32650354     0.39400
O287        O  0.48198849  0.66257413  0.89255807    -0.80500
O288        O  0.48679766  0.65738514  0.71635188    -0.65200
O289        O  0.47953874  0.63974834  0.82152586    -1.11800
C290        C  0.57280258  0.70578170  0.82259449     1.06400
O291        O  0.52829657  0.66393604  0.70950352    -0.78400
O292        O  0.55382009  0.65711628  0.76545235    -0.66000
Ni293      Ni  0.45566931  0.64400673  0.85467492     1.34900
C294        C  0.54129642  0.63689879  0.78855567     0.85100
O295        O  0.44446775  0.62143020  0.76382420    -0.79000
O296        O  0.42746277  0.62420270  0.82091492    -0.89200
C297        C  0.50594931  0.65824923  0.69623968     0.84700
O298        O  0.46167092  0.67824978  0.83428793    -0.67500
O299        O  0.57320464  0.70984784  0.78710692    -0.86700
C300        C  0.46413384  0.68626057  0.80002474     0.85500
C301        C  0.42470816  0.61471258  0.78784076     1.07100
H302        H  0.51822857  0.69382123  0.78385252     0.38900
O303        O  0.51800212  0.67686551  0.78098254    -1.09400
O304        O  0.52438299  0.63541668  0.81409384    -0.66000
Ni305      Ni  0.51604699  0.66296967  0.83063665     1.26300
O306        O  0.47050818  0.67562852  0.77342004    -0.66300
O307        O  0.55255954  0.68697781  0.84095178    -0.78600
C308        C  0.49874098  0.65598641  0.90387121     0.84900
O309        O  0.51108862  0.64900540  0.88066324    -0.65700
Ni310      Ni  0.54906516  0.68633177  0.74967304     1.27400
Ni311      Ni  0.48181153  0.64912590  0.76968934     1.26100
H312        H  0.47517766  0.62096949  0.82393039     0.39400
O313        O  0.17459496  0.00872378  0.06915366    -0.80500
O314        O  0.17092725  0.00682979  0.89498434    -0.65200
O315        O  0.17289197  0.98880573  0.99729051    -1.11800
C316        C  0.26507444  0.05070758  0.99043675     1.06400
O317        O  0.21455308  0.03282517  0.87816275    -0.78400
O318        O  0.22587055  0.00033757  0.92062253    -0.66000
Ni319      Ni  0.14772475  0.98829312  0.03361410     1.34900
C320        C  0.22345805  0.98532305  0.94904790     0.85100
O321        O  0.13541172  0.96744776  0.94320850    -0.79000
O322        O  0.11876028  0.96674886  0.00178015    -0.89200
C323        C  0.18989746  0.02060778  0.87074636     0.84700
O324        O  0.14923238  0.02124594  0.01728894    -0.67500
O325        O  0.26324840  0.04518159  0.95588607    -0.86700
C326        C  0.15040182  0.03040547  0.98413728     0.85500
C327        C  0.11600059  0.95826744  0.96821008     1.07100
H328        H  0.20630537  0.04568585  0.95811542     0.38900
O329        O  0.20710296  0.02926677  0.95508964    -1.09400
O330        O  0.22054097  0.99122613  0.98311644    -0.66000
Ni331      Ni  0.20887554  0.01584457  0.00381095     1.26300
O332        O  0.15663312  0.02143374  0.95547492    -0.66300
O333        O  0.24459280  0.04401804  0.01167818    -0.78600
C334        C  0.19321621  0.00441536  0.07832551     0.84900
O335        O  0.20787996  0.00191945  0.05320696    -0.65700
Ni336      Ni  0.23624182  0.03755912  0.91984951     1.27400
Ni337      Ni  0.17136456  0.99826930  0.94679780     1.26100
H338        H  0.17116514  0.97100317  0.99813977     0.39400
O339        O  0.16556323  0.00207924  0.57247949    -0.80500
O340        O  0.16121904  0.98737194  0.39879778    -0.65200
O341        O  0.16281482  0.97608287  0.50429102    -1.11800
C342        C  0.25581584  0.03327048  0.49372833     1.06400
O343        O  0.20430883  0.00328823  0.38151395    -0.78400
O344        O  0.21319234  0.97486306  0.43497854    -0.66000
Ni345      Ni  0.13844508  0.97917973  0.53864102     1.34900
C346        C  0.21161053  0.96417318  0.46724035     0.85100
O347        O  0.12401218  0.95338493  0.45083942    -0.79000
O348        O  0.10883186  0.95601595  0.50888920    -0.89200
C349        C  0.18012644  0.99494333  0.37383860     0.84700
O350        O  0.14087769  0.01112925  0.51658658    -0.67500
O351        O  0.25309926  0.02319455  0.46140299    -0.86700
C352        C  0.14367117  0.01922983  0.48246589     0.85500
C353        C  0.10499907  0.94646609  0.47596310     1.07100
H354        H  0.19980391  0.02870263  0.45498902     0.38900
O355        O  0.19843625  0.01109446  0.45682233    -1.09400
O356        O  0.20947069  0.97478673  0.49790603    -0.66000
Ni357      Ni  0.19950582  0.00252286  0.50862610     1.26300
O358        O  0.15015693  0.00868623  0.45588390    -0.66300
O359        O  0.23592141  0.03036189  0.51352461    -0.78600
C360        C  0.18523975  0.00011459  0.58321583     0.84900
O361        O  0.19844851  0.99387528  0.56056109    -0.65700
Ni362      Ni  0.22606539  0.01222143  0.42417503     1.27400
Ni363      Ni  0.16131636  0.98207122  0.45199936     1.26100
H364        H  0.16022751  0.95804998  0.50811441     0.39400
O365        O  0.00204548  0.14272657  0.09563824    -0.80500
O366        O  0.01069898  0.15252642  0.92013105    -0.65200
O367        O  0.02410632  0.16631493  0.02317624    -1.11800
C368        C  0.95927346  0.19210528  0.02909076     1.06400
O369        O  0.98724911  0.17290528  0.90762323    -0.78400
O370        O  0.01301659  0.21364473  0.95558813    -0.66000
Ni371      Ni  0.02344663  0.13892229  0.05562291     1.34900
C372        C  0.02587948  0.22462505  0.98465792     0.85100
O373        O  0.04778867  0.15390591  0.96388066    -0.79000
O374        O  0.04608237  0.13405669  0.01993495    -0.89200
C375        C  0.99957989  0.16061163  0.89755001     0.84700
O376        O  0.99213740  0.10723401  0.03779350    -0.67500
O377        O  0.96526028  0.19855901  0.99424019    -0.86700
C378        C  0.98504166  0.10179363  0.00405237     0.85500
C379        C  0.05569523  0.14185930  0.98623685     1.07100
H380        H  0.96969539  0.14388051  0.98622637     0.38900
O381        O  0.98567113  0.16174595  0.98418818    -1.09400
O382        O  0.01967505  0.21225945  0.01728058    -0.66000
Ni383      Ni  0.99626119  0.17348237  0.03397294     1.26300
O384        O  0.99451398  0.11969248  0.97755863    -0.66300
O385        O  0.96691428  0.17812366  0.04652118    -0.78600
C386        C  0.00464929  0.16506576  0.10707675     0.84900
O387        O  0.00748541  0.18344972  0.08377229    -0.65700
Ni388      Ni  0.97755143  0.18430738  0.95334426     1.27400
Ni389      Ni  0.01703812  0.15845719  0.97199981     1.26100
H390        H  0.04132766  0.18289927  0.02473093     0.39400
O391        O  0.00564201  0.14292475  0.59654535    -0.80500
O392        O  0.98832445  0.12666726  0.42605473    -0.65200
O393        O  0.01815192  0.15508006  0.51976467    -1.11800
C394        C  0.94948247  0.17807947  0.53151386     1.06400
O395        O  0.98023932  0.16011480  0.41261073    -0.78400
O396        O  0.99190380  0.20091802  0.45899158    -0.66000
Ni397      Ni  0.02289817  0.13396535  0.55678044     1.34900
C398        C  0.01294753  0.21265177  0.47766860     0.85100
O399        O  0.03094768  0.13090254  0.46162544    -0.79000
O400        O  0.04132814  0.12440449  0.52000021    -0.89200
C401        C  0.98526611  0.14168322  0.40247917     0.84700
O402        O  0.99020146  0.10016453  0.55177275    -0.67500
O403        O  0.94342463  0.17074155  0.49777376    -0.86700
C404        C  0.97605832  0.08941873  0.52369681     0.85500
C405        C  0.04416067  0.12484034  0.48415234     1.07100
H406        H  0.96020177  0.13129127  0.49917600     0.38900
O407        O  0.97594873  0.14797425  0.48990491    -1.09400
O408        O  0.01700099  0.20123118  0.50575614    -0.66000
Ni409      Ni  0.99382565  0.16688340  0.53326311     1.26300
O410        O  0.97985931  0.10230784  0.49251044    -0.66300
O411        O  0.96900463  0.17837020  0.54711935    -0.78600
C412        C  0.01037440  0.16674173  0.60389558     0.84900
O413        O  0.01190910  0.18293773  0.57783016    -0.65700
Ni414      Ni  0.96264042  0.16455462  0.45688783     1.27400
Ni415      Ni  0.00303160  0.13936664  0.47381597     1.26100
H416        H  0.03565777  0.17085882  0.51385029     0.39400
O417        O  0.85619926  0.85139707  0.87006453    -0.80500
O418        O  0.84913126  0.83938532  0.04471387    -0.65200
O419        O  0.85233184  0.82644180  0.94098795    -1.11800
C420        C  0.76156731  0.80160396  0.93809548     1.06400
O421        O  0.80482453  0.81743713  0.05830443    -0.78400
O422        O  0.78982005  0.77744253  0.00842695    -0.66000
Ni423      Ni  0.88024752  0.85368429  0.90813195     1.34900
C424        C  0.79385737  0.76712073  0.97923128     0.85100
O425        O  0.88665419  0.83891006  0.99917230    -0.79000
O426        O  0.90662928  0.85730433  0.94223889    -0.89200
C427        C  0.82908582  0.83011250  0.06793801     0.84700
O428        O  0.88148302  0.88580080  0.92722879    -0.67500
O429        O  0.75965204  0.79534786  0.97299921    -0.86700
C430        C  0.87780245  0.89102584  0.96081771     0.85500
C431        C  0.90729864  0.85013281  0.97615887     1.07100
H432        H  0.81870267  0.84802851  0.97991278     0.38900
O433        O  0.81685568  0.83020022  0.98154230    -1.09400
O434        O  0.80204611  0.78006776  0.94698548    -0.66000
Ni435      Ni  0.81753351  0.81900611  0.93120158     1.26300
O436        O  0.86741507  0.87287669  0.98706196    -0.66300
O437        O  0.78378215  0.81398247  0.91980584    -0.78600
C438        C  0.83687514  0.82956355  0.85775296     0.84900
O439        O  0.82083757  0.81021198  0.88041847    -0.65700
Ni440      Ni  0.78509386  0.80771081  0.01305335     1.27400
Ni441      Ni  0.85139851  0.83401191  0.99239734     1.26100
H442        H  0.85305022  0.80989394  0.93911226     0.39400
O443        O  0.84290125  0.83958282  0.37176370    -0.80500
O444        O  0.83661482  0.84082368  0.54901541    -0.65200
O445        O  0.83928018  0.82139245  0.44721804    -1.11800
C446        C  0.74859045  0.79060054  0.44310373     1.06400
O447        O  0.79234158  0.82300961  0.56053634    -0.78400
O448        O  0.78424774  0.77967332  0.51987243    -0.66000
Ni449      Ni  0.86676786  0.84596934  0.41197013     1.34900
C450        C  0.78719677  0.76725205  0.49230839     0.85100
O451        O  0.87394824  0.83754305  0.50558981    -0.79000
O452        O  0.89349057  0.85384617  0.44787484    -0.89200
C453        C  0.81638375  0.83508028  0.57093815     0.84700
O454        O  0.86495397  0.87753024  0.42439905    -0.67500
O455        O  0.74833278  0.78499391  0.47786655    -0.86700
C456        C  0.86322652  0.88619041  0.45643442     0.85500
C457        C  0.89450431  0.84823916  0.48243008     1.07100
H458        H  0.80572266  0.84551089  0.48092238     0.38900
O459        O  0.80429568  0.82802299  0.48460365    -1.09400
O460        O  0.79049643  0.77620106  0.45796657    -0.66000
Ni461      Ni  0.80441949  0.81342688  0.43668150     1.26300
O462        O  0.85543189  0.87114859  0.48633717    -0.66300
O463        O  0.77008281  0.80712403  0.42517010    -0.78600
C464        C  0.82222967  0.81745274  0.36307335     0.84900
O465        O  0.80639573  0.80042933  0.38830126    -0.65700
Ni466      Ni  0.77312296  0.80550497  0.51682333     1.27400
Ni467      Ni  0.83883166  0.83246407  0.49727973     1.26100
H468        H  0.83996777  0.80482625  0.44809717     0.39400
C469        C  0.84307572  0.84693904  0.67097073     0.19000
C470        C  0.82010144  0.83058869  0.69466200    -0.19000
C471        C  0.82191558  0.83015262  0.73380785    -0.11300
C472        C  0.84679227  0.84595427  0.75019269     0.21300
C473        C  0.86962882  0.86233582  0.72649562    -0.20700
C474        C  0.86784871  0.86258784  0.68736265    -0.11500
C475        C  0.84984301  0.84668074  0.79166940    -0.15700
C476        C  0.83222761  0.82739346  0.81689938    -0.29500
C477        C  0.84205529  0.84661997  0.62915188    -0.03800
C478        C  0.81984711  0.84120979  0.61133498    -0.40300
H479        H  0.80075336  0.81759217  0.68307940     0.12400
H480        H  0.80374601  0.81761867  0.75096789     0.12100
H481        H  0.88903840  0.87481595  0.73830145     0.11500
H482        H  0.88587982  0.87512707  0.66982638     0.11800
H483        H  0.86808580  0.86372265  0.80180199     0.14500
H484        H  0.81444666  0.80943071  0.80769522     0.13300
H485        H  0.85979452  0.85007432  0.61276417     0.10900
H486        H  0.80238586  0.83856343  0.62759034     0.13000
C487        C  0.82727667  0.82764115  0.25476597     0.19000
C488        C  0.84847280  0.84508232  0.22933769    -0.19000
C489        C  0.84482113  0.84442372  0.19071026    -0.11300
C490        C  0.81975924  0.82605454  0.17646669     0.21300
C491        C  0.79841582  0.80888782  0.20191299    -0.20700
C492        C  0.80206048  0.80959215  0.24064697    -0.11500
C493        C  0.81489844  0.82430597  0.13554278    -0.15700
C494        C  0.83461205  0.83395878  0.10827403    -0.29500
C495        C  0.83234856  0.83012727  0.29560249    -0.03800
C496        C  0.81574636  0.81244419  0.32307477    -0.40300
H497        H  0.86800432  0.85948872  0.23943015     0.12400
H498        H  0.86162830  0.85870011  0.17246421     0.12100
H499        H  0.77880956  0.79478431  0.19176555     0.11500
H500        H  0.78495957  0.79628301  0.25916499     0.11800
H501        H  0.79412542  0.81349352  0.12758677     0.14500
H502        H  0.85549374  0.84385364  0.11531622     0.13300
H503        H  0.85111655  0.84767462  0.30342677     0.10900
H504        H  0.79723305  0.79418926  0.31658796     0.13000
C505        C  0.89101921  0.95828295  0.49444223     0.19000
C506        C  0.90585528  0.97006891  0.52621792    -0.19000
C507        C  0.92148665  0.99841265  0.52859714    -0.11300
C508        C  0.92233311  0.01575321  0.49928300     0.21300
C509        C  0.90653221  0.00389042  0.46822813    -0.20700
C510        C  0.89097693  0.97551840  0.46580991    -0.11500
C511        C  0.94075349  0.04596267  0.49838316    -0.15700
C512        C  0.95493815  0.06024322  0.52761140    -0.29500
C513        C  0.87692707  0.92810009  0.49171230    -0.03800
C514        C  0.87192593  0.91541876  0.45871494    -0.40300
H515        H  0.90618328  0.95726628  0.54873119     0.12400
H516        H  0.93346966  0.00632263  0.55288343     0.12100
H517        H  0.90661166  0.01664455  0.44531618     0.11500
H518        H  0.87916835  0.96725501  0.44137622     0.11800
H519        H  0.94356296  0.05682068  0.47170956     0.14500
H520        H  0.95223364  0.05028336  0.55488546     0.13300
H521        H  0.87324572  0.91614743  0.51762892     0.10900
H522        H  0.87705013  0.92715152  0.43235771     0.13000
C523        C  0.00895640  0.16195017  0.71196164     0.19000
C524        C  0.00088098  0.13961838  0.73705234    -0.19000
C525        C  0.99744977  0.14198881  0.77554879    -0.11300
C526        C  0.00230359  0.16693303  0.78977691     0.21300
C527        C  0.01069160  0.18935823  0.76484277    -0.20700
C528        C  0.01423998  0.18703152  0.72630720    -0.11500
C529        C  0.99827228  0.17010049  0.83028321    -0.15700
C530        C  0.00160336  0.15563733  0.85742927    -0.29500
C531        C  0.01094249  0.15773342  0.67123740    -0.03800
C532        C  0.01180219  0.17450279  0.64345457    -0.40300
H533        H  0.99664179  0.12005041  0.72674417     0.12400
H534        H  0.99036688  0.12409992  0.79386352     0.12100
H535        H  0.01468569  0.20881076  0.77527754     0.11500
H536        H  0.02115391  0.20493507  0.70817254     0.11800
H537        H  0.99413036  0.18606646  0.83803481     0.14500
H538        H  0.00799225  0.14125398  0.85018532     0.13300
H539        H  0.01003774  0.13882261  0.66378739     0.10900
H540        H  0.01230055  0.19336350  0.64943961     0.13000
C541        C  0.99365552  0.15527312  0.29451445     0.19000
C542        C  0.98748554  0.17086785  0.27045983    -0.19000
C543        C  0.99069508  0.17040141  0.23137136    -0.11300
C544        C  0.00047133  0.15443888  0.21538373     0.21300
C545        C  0.00722343  0.13933927  0.23946962    -0.20700
C546        C  0.00401149  0.13980669  0.27857508    -0.11500
C547        C  0.00266249  0.15176086  0.17400200    -0.15700
C548        C  0.00288625  0.16919094  0.14782059    -0.29500
C549        C  0.98937798  0.15630067  0.33581972    -0.03800
C550        C  0.98893155  0.13858850  0.36181832    -0.40300
H551        H  0.97965879  0.18313382  0.28195104     0.12400
H552        H  0.98477999  0.18198954  0.21402614     0.12100
H553        H  0.01495206  0.12700086  0.22794831     0.11500
H554        H  0.00982206  0.12814321  0.29594002     0.11800
H555        H  0.00457442  0.13468520  0.16466818     0.14500
H556        H  0.00245370  0.18724706  0.15603806     0.13300
H557        H  0.98601848  0.17247299  0.34522551     0.10900
H558        H  0.99167191  0.12185306  0.35361373     0.13000
C559        C  0.94601887  0.02330987  0.99546582     0.19000
C560        C  0.93392367  0.00040466  0.02017427    -0.19000
C561        C  0.92004625  0.97399554  0.00647259    -0.11300
C562        C  0.91808312  0.96973878  0.96743894     0.21300
C563        C  0.93060836  0.99266382  0.94264494    -0.20700
C564        C  0.94431836  0.01912679  0.95639026    -0.11500
C565        C  0.90517629  0.94175804  0.95193112    -0.15700
C566        C  0.88655257  0.91929547  0.97171378    -0.29500
C567        C  0.96175716  0.05106733  0.01120292    -0.03800
C568        C  0.96557916  0.07371792  0.99307844    -0.40300
H569        H  0.93539621  0.00294739  0.05029223     0.12400
H570        H  0.91174864  0.95702729  0.02668481     0.12100
H571        H  0.93003281  0.99008152  0.91249756     0.11500
H572        H  0.95426251  0.03615572  0.93627683     0.11800
H573        H  0.91206298  0.93951352  0.92410201     0.14500
H574        H  0.87908109  0.92144514  0.99910564     0.13300
H575        H  0.97092946  0.05291759  0.03796405     0.10900
H576        H  0.95612527  0.07185840  0.96659183     0.13000
C577        C  0.97081856  0.87409894  0.47823934     0.19000
C578        C  0.98879248  0.87592070  0.44901423    -0.19000
C579        C  0.01655665  0.88997307  0.45341601    -0.11300
C580        C  0.02704212  0.90270081  0.48731176     0.21300
C581        C  0.00897063  0.90007697  0.51695735    -0.20700
C582        C  0.98121995  0.88603270  0.51254330    -0.11500
C583        C  0.05639952  0.91973933  0.49314305    -0.15700
C584        C  0.07672320  0.92687260  0.46695729    -0.29500
C585        C  0.94200949  0.86224466  0.46999503    -0.03800
C586        C  0.92139985  0.85549236  0.49547109    -0.40300
H587        H  0.98134698  0.86696989  0.42218959     0.12400
H588        H  0.02953831  0.89113453  0.42996884     0.12100
H589        H  0.01640057  0.90963981  0.54346305     0.11500
H590        H  0.96822094  0.88556306  0.53552129     0.11800
H591        H  0.06147993  0.92792237  0.52103750     0.14500
H592        H  0.07279196  0.91938763  0.43867188     0.13300
H593        H  0.93773771  0.85985846  0.44031828     0.10900
H594        H  0.92431738  0.85605148  0.52546333     0.13000
C595        C  0.12478653  0.07502363  0.49124690     0.19000
C596        C  0.13104404  0.09612169  0.51607726    -0.19000
C597        C  0.11885604  0.11183142  0.51368587    -0.11300
C598        C  0.09970000  0.10656062  0.48682025     0.21300
C599        C  0.09437220  0.08630665  0.46059187    -0.20700
C600        C  0.10688642  0.07072539  0.46273214    -0.11500
C601        C  0.08339602  0.11993279  0.49136692    -0.15700
C602        C  0.06365323  0.11717027  0.46926630    -0.29500
C603        C  0.13451425  0.05587797  0.49902405    -0.03800
C604        C  0.13800566  0.04109671  0.47261349    -0.40300
H605        H  0.14467759  0.09981017  0.53833938     0.12400
H606        H  0.12338600  0.12724986  0.53433791     0.12100
H607        H  0.07956837  0.08136993  0.43976125     0.11500
H608        H  0.10119630  0.05424343  0.44357868     0.11800
H609        H  0.08637916  0.13111284  0.51706501     0.14500
H610        H  0.06062306  0.10777945  0.44216409     0.13300
H611        H  0.13844083  0.05349507  0.52806987     0.10900
H612        H  0.13582748  0.04444705  0.44315861     0.13000
C613        C  0.18668919  0.01940751  0.68686905     0.19000
C614        C  0.16803157  0.02110203  0.71138580    -0.19000
C615        C  0.17298657  0.02609474  0.74942916    -0.11300
C616        C  0.19682781  0.02957118  0.76354119     0.21300
C617        C  0.21595479  0.02902024  0.73886016    -0.20700
C618        C  0.21098519  0.02391534  0.70091868    -0.11500
C619        C  0.20237394  0.03314191  0.80385144    -0.15700
C620        C  0.18305160  0.02158292  0.83151062    -0.29500
C621        C  0.17987694  0.01301060  0.64709201    -0.03800
C622        C  0.19374117  0.00672664  0.62201269    -0.40300
H623        H  0.14937085  0.01820260  0.70117387     0.12400
H624        H  0.15820543  0.02723329  0.76761277     0.12100
H625        H  0.23459498  0.03192026  0.74917129     0.11500
H626        H  0.22632104  0.02359836  0.68310239     0.11800
H627        H  0.22332876  0.04298317  0.81085941     0.14500
H628        H  0.16201260  0.01040042  0.82497144     0.13300
H629        H  0.16194596  0.01274406  0.63829907     0.10900
H630        H  0.21129817  0.00595762  0.62962268     0.13000
C631        C  0.18580885  0.00444221  0.18652596     0.19000
C632        C  0.16425648  0.99970681  0.21121597    -0.19000
C633        C  0.16616048  0.99854656  0.25016874    -0.11300
C634        C  0.18985271  0.00221926  0.26527103     0.21300
C635        C  0.21150741  0.00727587  0.24053567    -0.20700
C636        C  0.20959330  0.00842291  0.20161766    -0.11500
C637        C  0.19352903  0.00195163  0.30634342    -0.15700
C638        C  0.17398381  0.99414565  0.33370815    -0.29500
C639        C  0.18275819  0.00588895  0.14548228    -0.03800
C640        C  0.19843173  0.00363245  0.11848559    -0.40300
H641        H  0.14580716  0.99689806  0.20030263     0.12400
H642        H  0.14917264  0.99518359  0.26800929     0.12100
H643        H  0.23013687  0.01053393  0.25138272     0.11500
H644        H  0.22695986  0.01293361  0.18373767     0.11800
H645        H  0.21380077  0.00846328  0.31442754     0.14500
H646        H  0.15335871  0.98690403  0.32705202     0.13300
H647        H  0.16604511  0.00809411  0.13714854     0.10900
H648        H  0.21466884  0.00035937  0.12558226     0.13000
C649        C  0.98348719  0.87583673  0.97117740     0.19000
C650        C  0.00177166  0.88063966  0.94074124    -0.19000
C651        C  0.02951174  0.89556033  0.94503922    -0.11300
C652        C  0.03964361  0.90610565  0.98008221     0.21300
C653        C  0.02135876  0.90005473  0.01098840    -0.20700
C654        C  0.99360660  0.88523441  0.00665343    -0.11500
C655        C  0.06878238  0.92445176  0.98586320    -0.15700
C656        C  0.08850503  0.93708492  0.95846791    -0.29500
C657        C  0.95459661  0.86370355  0.96321824    -0.03800
C658        C  0.93396294  0.85634205  0.98885533    -0.40300
H659        H  0.99456839  0.87353984  0.91306930     0.12400
H660        H  0.04275443  0.89912131  0.92070185     0.12100
H661        H  0.02857556  0.90774582  0.03844852     0.11500
H662        H  0.98038137  0.88223800  0.03078776     0.11800
H663        H  0.07400210  0.92920715  0.01495529     0.14500
H664        H  0.08446402  0.93294406  0.92902815     0.13300
H665        H  0.95031068  0.86214134  0.93354719     0.10900
H666        H  0.93678212  0.85618663  0.01880278     0.13000
C667        C  0.12798206  0.08318699  0.00046342     0.19000
C668        C  0.11712110  0.08610966  0.96700980    -0.19000
C669        C  0.10634798  0.10334100  0.96525464    -0.11300
C670        C  0.10637891  0.11798627  0.99687852     0.21300
C671        C  0.11832500  0.11584736  0.02943983    -0.20700
C672        C  0.12876888  0.09858012  0.03129198    -0.11500
C673        C  0.09148383  0.13290521  0.99992329    -0.15700
C674        C  0.07647135  0.13534594  0.97361174    -0.29500
C675        C  0.13668849  0.06289979  0.00584380    -0.03800
C676        C  0.14370725  0.05195698  0.97760017    -0.40300
H677        H  0.11569111  0.07422042  0.94279081     0.12400
H678        H  0.09714146  0.10421859  0.93977005     0.12100
H679        H  0.11855586  0.12671643  0.05436255     0.11500
H680        H  0.13691072  0.09672751  0.05738691     0.11800
H681        H  0.09058237  0.14014181  0.02781840     0.14500
H682        H  0.07734355  0.13003966  0.94463047     0.13300
H683        H  0.13737520  0.05673825  0.03463685     0.10900
H684        H  0.14426975  0.05857771  0.94867837     0.13000
C685        C  0.64477792  0.75181198  0.85665745     0.19000
C686        C  0.67013269  0.75835468  0.84151911    -0.19000
C687        C  0.69198836  0.76731443  0.86453195    -0.11300
C688        C  0.68921158  0.77048780  0.90342393     0.21300
C689        C  0.66401274  0.76460085  0.91847808    -0.20700
C690        C  0.64211835  0.75566943  0.89539536    -0.11500
C691        C  0.71198501  0.77891369  0.92885281    -0.15700
C692        C  0.73772425  0.79417859  0.91604383    -0.29500
C693        C  0.62144097  0.73962236  0.83170002    -0.03800
C694        C  0.59624709  0.72258539  0.84540527    -0.40300
H695        H  0.67284402  0.75556201  0.81194572     0.12400
H696        H  0.71076716  0.77079078  0.85179686     0.12100
H697        H  0.66125724  0.76694265  0.94820378     0.11500
H698        H  0.62319767  0.75178173  0.90814889     0.11800
H699        H  0.70749337  0.77259058  0.95843730     0.14500
H700        H  0.74201092  0.80165738  0.88694416     0.13300
H701        H  0.62537066  0.74235214  0.80138561     0.10900
H702        H  0.59264000  0.71834109  0.87553731     0.13000
C703        C  0.48532667  0.64872351  0.59296277     0.19000
C704        C  0.47893451  0.66412342  0.56908533    -0.19000
C705        C  0.48140320  0.66301699  0.52993699    -0.11300
C706        C  0.48965529  0.64578679  0.51357937     0.21300
C707        C  0.49545246  0.62991054  0.53762496    -0.20700
C708        C  0.49326293  0.63127086  0.57682363    -0.11500
C709        C  0.49267711  0.64409963  0.47183305    -0.15700
C710        C  0.48014368  0.65155370  0.44748058    -0.29500
C711        C  0.48469717  0.65216297  0.63440580    -0.03800
C712        C  0.50305303  0.65169242  0.65596242    -0.40300
H713        H  0.47292585  0.67782178  0.58076033     0.12400
H714        H  0.47748005  0.67632594  0.51289317     0.12100
H715        H  0.50169075  0.61637189  0.52603889     0.11500
H716        H  0.49776763  0.61861811  0.59444923     0.11800
H717        H  0.50440156  0.63538796  0.46104467     0.14500
H718        H  0.46696252  0.65852980  0.45818059     0.13300
H719        H  0.47083386  0.65787564  0.64662028     0.10900
H720        H  0.51831863  0.64830793  0.64283261     0.13000
C721        C  0.50008250  0.66780547  0.01090653     0.19000
C722        C  0.48223568  0.66952189  0.03695017    -0.19000
C723        C  0.48576302  0.66936683  0.07561301    -0.11300
C724        C  0.50736111  0.66751721  0.08915761     0.21300
C725        C  0.52585916  0.66696109  0.06310307    -0.20700
C726        C  0.52231808  0.66708343  0.02440996    -0.11500
C727        C  0.51153020  0.66664016  0.13005828    -0.15700
C728        C  0.49150076  0.65771215  0.15674434    -0.29500
C729        C  0.49479333  0.66702002  0.97012939    -0.03800
C730        C  0.50519860  0.65767166  0.94390708    -0.40300
H731        H  0.46526972  0.67067862  0.02736051     0.12400
H732        H  0.47166625  0.67098320  0.09463237     0.12100
H733        H  0.54297895  0.66611287  0.07274308     0.11500
H734        H  0.53719637  0.66684866  0.00540807     0.11800
H735        H  0.53158909  0.67239519  0.13830025     0.14500
H736        H  0.47107783  0.65047095  0.14887001     0.13300
H737        H  0.48080121  0.67327642  0.96163224     0.10900
H738        H  0.51850754  0.65043370  0.95171446     0.13000
C739        C  0.67719984  0.74087923  0.40979346     0.19000
C740        C  0.65131052  0.72570245  0.42689425    -0.19000
C741        C  0.62874805  0.71271691  0.40503905    -0.11300
C742        C  0.63158792  0.71452916  0.36540517     0.21300
C743        C  0.65752996  0.72845834  0.34833182    -0.20700
C744        C  0.68008480  0.74153495  0.37016768    -0.11500
C745        C  0.60794124  0.70192674  0.34129840    -0.15700
C746        C  0.58415372  0.69902979  0.35254620    -0.29500
C747        C  0.70075165  0.75517199  0.43394171    -0.03800
C748        C  0.72405155  0.77711653  0.42138885    -0.40300
H749        H  0.64849303  0.72419727  0.45728988     0.12400
H750        H  0.60914951  0.70112507  0.41932633     0.12100
H751        H  0.66034650  0.72961369  0.31794410     0.11500
H752        H  0.69970349  0.75185752  0.35579428     0.11800
H753        H  0.61045119  0.69588554  0.31327568     0.14500
H754        H  0.58202704  0.70624457  0.37984310     0.13300
H755        H  0.69872723  0.74769564  0.46283124     0.10900
H756        H  0.72586863  0.78528503  0.39302047     0.13000
C757        C  0.34890620  0.56499488  0.80708720     0.19000
C758        C  0.33479063  0.55111322  0.84076598    -0.19000
C759        C  0.30723561  0.54079933  0.84581883    -0.11300
C760        C  0.29278145  0.54352441  0.81709332     0.21300
C761        C  0.30650322  0.55631373  0.78253399    -0.20700
C762        C  0.33437762  0.56706366  0.77760373    -0.11500
C763        C  0.26411774  0.53494785  0.82562807    -0.15700
C764        C  0.24560487  0.52672601  0.79946337    -0.29500
C765        C  0.37881410  0.57968603  0.80688641    -0.03800
C766        C  0.39654896  0.59511681  0.77845580    -0.40300
H767        H  0.34534698  0.54924407  0.86410586     0.12400
H768        H  0.29725437  0.53115847  0.87269133     0.12100
H769        H  0.29606050  0.55927124  0.76000266     0.11500
H770        H  0.34451190  0.57788980  0.75144963     0.11800
H771        H  0.25804974  0.53527067  0.85481258     0.14500
H772        H  0.25116267  0.52518879  0.77049606     0.13300
H773        H  0.38698079  0.57961579  0.83394928     0.10900
H774        H  0.39028761  0.59502249  0.75006540     0.13000
C775        C  0.09685884  0.34506978  0.89557287     0.19000
C776        C  0.08126685  0.33856455  0.92957964    -0.19000
C777        C  0.06997614  0.31256663  0.94716386    -0.11300
C778        C  0.07421743  0.29252758  0.93113129     0.21300
C779        C  0.09040193  0.29930339  0.89777394    -0.20700
C780        C  0.10176187  0.32523008  0.88034801    -0.11500
C781        C  0.05891526  0.26337281  0.94438544    -0.15700
C782        C  0.04764980  0.25366945  0.97935496    -0.29500
C783        C  0.10765549  0.37265518  0.87708599    -0.03800
C784        C  0.11575810  0.37872101  0.84027601    -0.40300
H785        H  0.07716643  0.35342264  0.94205198     0.12400
H786        H  0.05701387  0.30785777  0.97223429     0.12100
H787        H  0.09382168  0.28419233  0.88461416     0.11500
H788        H  0.11424322  0.32947092  0.85492179     0.11800
H789        H  0.05515501  0.24868564  0.92271061     0.14500
H790        H  0.05222038  0.26730436  0.00258952     0.13300
H791        H  0.10773298  0.38835066  0.89427420     0.10900
H792        H  0.11452001  0.36307440  0.82195692     0.13000
C793        C  0.14843401  0.48423141  0.59174649     0.19000
C794        C  0.12832271  0.46521694  0.56932438    -0.19000
C795        C  0.13032720  0.46880902  0.53020155    -0.11300
C796        C  0.15258745  0.49174810  0.51241177     0.21300
C797        C  0.17241251  0.51114079  0.53486672    -0.20700
C798        C  0.17043836  0.50751079  0.57406825    -0.11500
C799        C  0.15697737  0.49533175  0.47073610    -0.15700
C800        C  0.13824825  0.48054012  0.44598381    -0.29500
C801        C  0.14589342  0.47796399  0.63294267    -0.03800
C802        C  0.16271581  0.49449656  0.65853326    -0.40300
H803        H  0.11117304  0.44706296  0.58208344     0.12400
H804        H  0.11477284  0.45302036  0.51429134     0.12100
H805        H  0.18983720  0.52896257  0.52195446     0.11500
H806        H  0.18653836  0.52270820  0.58991818     0.11800
H807        H  0.17691610  0.51074734  0.45990114     0.14500
H808        H  0.11780845  0.46582163  0.45547663     0.13300
H809        H  0.12915978  0.45823774  0.64269509     0.10900
H810        H  0.17936250  0.51458293  0.65041731     0.13000
C811        C  0.15802911  0.49041007  0.09377448     0.19000
C812        C  0.18085007  0.50935130  0.07218295    -0.19000
C813        C  0.18089321  0.50960180  0.03294253    -0.11300
C814        C  0.15806928  0.49102242  0.01407701     0.21300
C815        C  0.13475602  0.47252539  0.03559154    -0.20700
C816        C  0.13470540  0.47230386  0.07504923    -0.11500
C817        C  0.16013112  0.49217960  0.97216336    -0.15700
C818        C  0.14145393  0.47480822  0.94892482    -0.29500
C819        C  0.15951561  0.49021191  0.13554219    -0.03800
C820        C  0.14343176  0.46806781  0.15752211    -0.40300
H821        H  0.19895272  0.52371065  0.08571562     0.12400
H822        H  0.19909364  0.52428657  0.01720882     0.12100
H823        H  0.11654828  0.45827707  0.02232957     0.11500
H824        H  0.11627611  0.45808448  0.09060041     0.11800
H825        H  0.17892695  0.50859631  0.95951346     0.14500
H826        H  0.12221392  0.45819199  0.95977568     0.13300
H827        H  0.17510742  0.50833160  0.14834055     0.10900
H828        H  0.12844912  0.44953918  0.14491000     0.13000
C829        C  0.28355893  0.51912175  0.30839129     0.19000
C830        C  0.29721296  0.51310532  0.33500497    -0.19000
C831        C  0.32484846  0.52364855  0.33028627    -0.11300
C832        C  0.33970072  0.54100853  0.29924013     0.21300
C833        C  0.32584876  0.54602922  0.27149614    -0.20700
C834        C  0.29800532  0.53511418  0.27600581    -0.11500
C835        C  0.36948851  0.55664616  0.30092478    -0.15700
C836        C  0.38714593  0.57555978  0.27524593    -0.29500
C837        C  0.25521494  0.51131919  0.31748547    -0.03800
C838        C  0.23744499  0.50658224  0.29110482    -0.40300
H839        H  0.28661279  0.50097703  0.36023750     0.12400
H840        H  0.33490971  0.51947225  0.35223896     0.12100
H841        H  0.33648060  0.55954336  0.24744364     0.11500
H842        H  0.28819554  0.54067670  0.25531727     0.11800
H843        H  0.37718146  0.55492811  0.32766052     0.14500
H844        H  0.38139945  0.57732009  0.24714659     0.13300
H845        H  0.24910003  0.51032151  0.34699865     0.10900
H846        H  0.24304711  0.50633695  0.26169725     0.13000
C847        C  0.04680618  0.28155296  0.42198991     0.19000
C848        C  0.03749900  0.29873676  0.41004689    -0.19000
C849        C  0.05417300  0.32236451  0.38823196    -0.11300
C850        C  0.08045528  0.32912464  0.37726151     0.21300
C851        C  0.08974056  0.31177631  0.38851029    -0.20700
C852        C  0.07315953  0.28829633  0.41112312    -0.11500
C853        C  0.09781714  0.35400678  0.35343614    -0.15700
C854        C  0.09939045  0.37771799  0.36166787    -0.29500
C855        C  0.02733467  0.25531747  0.44168675    -0.03800
C856        C  0.03373617  0.24070090  0.46478793    -0.40300
H857        H  0.01709976  0.29368907  0.41729808     0.12400
H858        H  0.04631323  0.33507657  0.37917017     0.12100
H859        H  0.10983840  0.31648304  0.37995856     0.11500
H860        H  0.08063206  0.27501052  0.41887895     0.11800
H861        H  0.10914550  0.35280815  0.32925487     0.14500
H862        H  0.08939705  0.37877677  0.38754035     0.13300
H863        H  0.00631697  0.24737078  0.43618159     0.10900
H864        H  0.05423344  0.24887031  0.47306726     0.13000
C865        C  0.24786298  0.90092018  0.85117523     0.19000
C866        C  0.23062280  0.90790971  0.83417112    -0.19000
C867        C  0.22120977  0.92291774  0.85331931    -0.11300
C868        C  0.22891942  0.93162966  0.88996749     0.21300
C869        C  0.24570117  0.92413264  0.90762095    -0.20700
C870        C  0.25509112  0.90893901  0.88841220    -0.11500
C871        C  0.22160456  0.95121546  0.90590188    -0.15700
C872        C  0.22558594  0.96087169  0.94112841    -0.29500
C873        C  0.25969341  0.88756365  0.82797674    -0.03800
C874        C  0.27051084  0.87376173  0.84288438    -0.40300
H875        H  0.22488694  0.90228096  0.80554204     0.12400
H876        H  0.20852203  0.92858248  0.83878791     0.12100
H877        H  0.25261347  0.93094475  0.93543723     0.11500
H878        H  0.26901085  0.90475588  0.90225831     0.11800
H879        H  0.21363755  0.95960725  0.88596097     0.14500
H880        H  0.23197286  0.95226631  0.96297859     0.13300
H881        H  0.26026451  0.88997125  0.79753395     0.10900
H882        H  0.26942369  0.87056513  0.87318193     0.13000
C883        C  0.21075358  0.63619011  0.80378461     0.19000
C884        C  0.22918400  0.65161396  0.77392202    -0.19000
C885        C  0.24517718  0.68013887  0.77579306    -0.11300
C886        C  0.24301292  0.69362389  0.80759817     0.21300
C887        C  0.22371672  0.67822591  0.83630158    -0.20700
C888        C  0.20775809  0.64997904  0.83434810    -0.11500
C889        C  0.26242074  0.72282750  0.81441760    -0.15700
C890        C  0.27717185  0.74178960  0.78724973    -0.29500
C891        C  0.19701435  0.60592043  0.80758988    -0.03800
C892        C  0.19507543  0.58849319  0.78070215    -0.40300
H893        H  0.23239200  0.64171087  0.75020877     0.12400
H894        H  0.26022339  0.69125077  0.75342562     0.12100
H895        H  0.22165286  0.68798898  0.86112736     0.11500
H896        H  0.19382000  0.63869349  0.85784475     0.11800
H897        H  0.26514064  0.72879073  0.84358392     0.14500
H898        H  0.27389667  0.73672426  0.75785282     0.13300
H899        H  0.18896213  0.59740940  0.83579165     0.10900
H900        H  0.20109008  0.59535793  0.75153127     0.13000
C901        C  0.44226030  0.74041764  0.80492745     0.19000
C902        C  0.44513920  0.75947405  0.83162043    -0.19000
C903        C  0.43449126  0.77634438  0.82615946    -0.11300
C904        C  0.42015806  0.77438990  0.79412945     0.21300
C905        C  0.41808008  0.75607631  0.76636705    -0.20700
C906        C  0.42915041  0.73927861  0.77167010    -0.11500
C907        C  0.40487178  0.78900829  0.79455262    -0.15700
C908        C  0.38996721  0.79049014  0.76715503    -0.29500
C909        C  0.45080845  0.72049953  0.81486042    -0.03800
C910        C  0.45837523  0.70807414  0.78946827    -0.40300
H911        H  0.45504672  0.76079705  0.85744692     0.12400
H912        H  0.43639818  0.79015383  0.84814360     0.12100
H913        H  0.40688326  0.75370063  0.74158765     0.11500
H914        H  0.42612200  0.72445400  0.75075084     0.11800
H915        H  0.40419996  0.79770758  0.82138254     0.14500
H916        H  0.39081749  0.78400755  0.73884528     0.13300
H917        H  0.45094363  0.71599927  0.84460898     0.10900
H918        H  0.45942920  0.71323841  0.75972142     0.13000
C919        C  0.33103049  0.82496811  0.58565970     0.19000
C920        C  0.31027577  0.80497397  0.56517194    -0.19000
C921        C  0.30965958  0.80857922  0.52631984    -0.11300
C922        C  0.33016329  0.83212175  0.50686276     0.21300
C923        C  0.35100768  0.85207704  0.52732296    -0.20700
C924        C  0.35159338  0.84848886  0.56623241    -0.11500
C925        C  0.33052312  0.83604234  0.46528003    -0.15700
C926        C  0.32030291  0.81472724  0.44258693    -0.29500
C927        C  0.32993990  0.82138116  0.62738135    -0.03800
C928        C  0.33867948  0.84280819  0.64971305    -0.40300
H929        H  0.29407675  0.78682921  0.57944264     0.12400
H930        H  0.29283228  0.79306453  0.51176709     0.12100
H931        H  0.36710509  0.87030157  0.51306758     0.11500
H932        H  0.36824854  0.86409241  0.58096704     0.11800
H933        H  0.34126026  0.85663831  0.45297406     0.14500
H934        H  0.31176845  0.79425154  0.45475660     0.13300
H935        H  0.31885171  0.80087233  0.63995638     0.10900
H936        H  0.34719492  0.86313275  0.63698239     0.13000
C937        C  0.31798074  0.82123480  0.00744818     0.19000
C938        C  0.31936296  0.80286271  0.03247818    -0.19000
C939        C  0.31788270  0.80549611  0.07130508    -0.11300
C940        C  0.31467989  0.82657847  0.08613483     0.21300
C941        C  0.31297710  0.84479729  0.06098706    -0.20700
C942        C  0.31454650  0.84218474  0.02207690    -0.11500
C943        C  0.31346483  0.83073846  0.12726725    -0.15700
C944        C  0.31412168  0.81436198  0.15431496    -0.29500
C945        C  0.31955596  0.81729102  0.96647507    -0.03800
C946        C  0.32700185  0.83724745  0.94011436    -0.40300
H947        H  0.32188145  0.78648336  0.02191642     0.12400
H948        H  0.31946228  0.79094039  0.08906350     0.12100
H949        H  0.31036878  0.86113726  0.07148007     0.11500
H950        H  0.31260707  0.85632289  0.00376911     0.11800
H951        H  0.31231259  0.84842970  0.13565932     0.14500
H952        H  0.31501941  0.79638449  0.14738888     0.13300
H953        H  0.31539016  0.79732079  0.95778692     0.10900
H954        H  0.33243777  0.85769396  0.94808027     0.13000
C955        C  0.24564887  0.87747578  0.40172563     0.19000
C956        C  0.25423890  0.89236075  0.43467035    -0.19000
C957        C  0.24201774  0.90671728  0.44836970    -0.11300
C958        C  0.22065127  0.90596084  0.42956518     0.21300
C959        C  0.21086476  0.88932593  0.39838538    -0.20700
C960        C  0.22311842  0.87520341  0.38466544    -0.11500
C961        C  0.21097246  0.92531260  0.43695511    -0.15700
C962        C  0.21456618  0.93970774  0.46834545    -0.29500
C963        C  0.26114178  0.86566785  0.38436089    -0.03800
C964        C  0.26514280  0.86613233  0.34668452    -0.40300
H965        H  0.27141009  0.89417568  0.44853164     0.12400
H966        H  0.25036763  0.91958031  0.47215025     0.12100
H967        H  0.19437457  0.88823238  0.38344156     0.11500
H968        H  0.21541464  0.86313342  0.35999448     0.11800
H969        H  0.20193673  0.92947576  0.41341768     0.14500
H970        H  0.22192556  0.93517476  0.49342821     0.13300
H971        H  0.27105854  0.85848291  0.40268986     0.10900
H972        H  0.25688387  0.87531838  0.32866653     0.13000
C973        C  0.24656273  0.62644841  0.26729855     0.19000
C974        C  0.27407002  0.64001778  0.27385038    -0.19000
C975        C  0.28772459  0.66738850  0.28306224    -0.11300
C976        C  0.27430407  0.68204266  0.28589893     0.21300
C977        C  0.24698635  0.66897287  0.27737481    -0.20700
C978        C  0.23320719  0.64134327  0.26815631    -0.11500
C979        C  0.28957043  0.71035895  0.29941811    -0.15700
C980        C  0.28297385  0.72954047  0.29358033    -0.29500
C981        C  0.23211301  0.59620538  0.26746325    -0.03800
C982        C  0.20680542  0.57953710  0.25696673    -0.40300
H983        H  0.28480869  0.62900641  0.27370465     0.12400
H984        H  0.30877157  0.67694473  0.28911231     0.12100
H985        H  0.23584756  0.67948769  0.27962236     0.11500
H986        H  0.21186675  0.63136547  0.26412403     0.11800
H987        H  0.30845284  0.71632743  0.31233259     0.14500
H988        H  0.26544679  0.72494032  0.27804284     0.13300
H989        H  0.24220122  0.58690968  0.28114908     0.10900
H990        H  0.19624618  0.58716685  0.24090499     0.13000
C991        C  0.41994476  0.71926138  0.28967239     0.19000
C992        C  0.39454256  0.71429638  0.28038975    -0.19000
C993        C  0.39034980  0.73596636  0.27267382    -0.11300
C994        C  0.41138114  0.76311701  0.27515435     0.21300
C995        C  0.43693519  0.76809358  0.28385728    -0.20700
C996        C  0.44131935  0.74637086  0.29047070    -0.11500
C997        C  0.40554936  0.78564006  0.27685176    -0.15700
C998        C  0.38585471  0.78580744  0.25791814    -0.29500
C999        C  0.42323232  0.69597509  0.30094663    -0.03800
C1000       C  0.44463411  0.69428518  0.28922391    -0.40300
H1001       H  0.37776129  0.69357896  0.27988862     0.12400
H1002       H  0.37020325  0.73141015  0.26733177     0.12100
H1003       H  0.45326078  0.78879880  0.28690429     0.11500
H1004       H  0.46102588  0.75075398  0.29816780     0.11800
H1005       H  0.41466001  0.79990796  0.29923328     0.14500
H1006       H  0.37772593  0.77285515  0.23400558     0.13300
H1007       H  0.40693325  0.67908675  0.31736658     0.10900
H1008       H  0.45964866  0.70990137  0.26978290     0.13000
C1009       C  0.56932077  0.59413338  0.74374489     0.19000
C1010       C  0.57323966  0.58918053  0.70604291    -0.19000
C1011       C  0.58833347  0.57696839  0.69652401    -0.18500
C1012       C  0.60006408  0.56949824  0.72464605     0.21300
C1013       C  0.59526718  0.57348111  0.76250551    -0.20700
C1014       C  0.58001309  0.58558086  0.77204612    -0.11500
C1015       C  0.61975842  0.56050476  0.71581010    -0.15700
C1016       C  0.62351368  0.55164402  0.68222453    -0.29500
C1017       C  0.55753666  0.61169628  0.75123742    -0.03800
C1018       C  0.54754887  0.61466369  0.78475464    -0.40300
H1019       H  0.56547826  0.59583296  0.68359560     0.12400
H1020       H  0.59185166  0.57478739  0.66705331     0.12100
H1021       H  0.60422881  0.56813431  0.78478426     0.11500
H1022       H  0.57792640  0.58953315  0.80128306     0.11800
H1023       H  0.63251676  0.56196060  0.73843994     0.14500
H1024       H  0.61018821  0.54814479  0.65957327     0.13300
H1025       H  0.55809035  0.62397299  0.72717658     0.10900
H1026       H  0.54472479  0.60159289  0.80903389     0.13000
C1027       C  0.77977474  0.70696814  0.55237460     0.19000
C1028       C  0.75996132  0.68304501  0.53638411    -0.19000
C1029       C  0.74921135  0.65780912  0.55574418    -0.11300
C1030       C  0.75817936  0.65594644  0.59149257     0.21300
C1031       C  0.77867534  0.67979235  0.60656704    -0.20700
C1032       C  0.78927058  0.70495427  0.58733338    -0.11500
C1033       C  0.74530962  0.63032288  0.61544658    -0.15700
C1034       C  0.72813739  0.60559090  0.60264893    -0.29500
C1035       C  0.78799695  0.73458001  0.53683903    -0.03800
C1036       C  0.78490233  0.74064226  0.50120859    -0.40300
H1037       H  0.75158290  0.68388585  0.51004301     0.12400
H1038       H  0.73302328  0.64026890  0.54318088     0.12100
H1039       H  0.78593220  0.67911775  0.63398370     0.11500
H1040       H  0.80430287  0.72311686  0.60052732     0.11800
H1041       H  0.74948841  0.63206989  0.64515579     0.14500
H1042       H  0.72422078  0.60310142  0.57297325     0.13300
H1043       H  0.79565032  0.75077027  0.55698875     0.10900
H1044       H  0.77909857  0.72571875  0.47947131     0.13000
C1045       C  0.66959807  0.51872976  0.86913841     0.19000
C1046       C  0.65614084  0.52828838  0.89222321    -0.19000
C1047       C  0.65504545  0.52494927  0.93141378    -0.11300
C1048       C  0.66776591  0.51225570  0.94812288     0.21300
C1049       C  0.68144042  0.50300847  0.92495972    -0.20700
C1050       C  0.68251446  0.50632410  0.88594658    -0.11500
C1051       C  0.66659849  0.50713387  0.98925507    -0.15700
C1052       C  0.66039326  0.52001424  0.01577604    -0.29500
C1053       C  0.67077946  0.52291298  0.82777766    -0.03800
C1054       C  0.67371800  0.50661782  0.80335684    -0.40300
H1055       H  0.64615576  0.53804014  0.87985706     0.12400
H1056       H  0.64385369  0.53185898  0.94824670     0.12100
H1057       H  0.69151217  0.49327821  0.93713335     0.11500
H1058       H  0.69387477  0.49956080  0.86917326     0.11800
H1059       H  0.67174603  0.49208366  0.99814073     0.14500
H1060       H  0.65588824  0.53571955  0.00821772     0.13300
H1061       H  0.66858961  0.53962216  0.81713180     0.10900
H1062       H  0.67397575  0.48869207  0.81346198     0.13000
C1063       C  0.65351120  0.49588561  0.44909205     0.19000
C1064       C  0.64732023  0.47440022  0.42481278    -0.19000
C1065       C  0.64760745  0.47832230  0.38588025    -0.11300
C1066       C  0.65434661  0.50400748  0.37046875     0.21300
C1067       C  0.65985955  0.52525735  0.39477309    -0.20700
C1068       C  0.65969653  0.52139300  0.43360074    -0.11500
C1069       C  0.65610844  0.50978228  0.32940370    -0.15700
C1070       C  0.66051127  0.49550299  0.30308992    -0.29500
C1071       C  0.65475665  0.49126783  0.48996448    -0.03800
C1072       C  0.65466469  0.50774486  0.51674587    -0.40300
H1073       H  0.64240349  0.45452710  0.43600390     0.12400
H1074       H  0.64246353  0.46120562  0.36815638     0.12100
H1075       H  0.66506102  0.54522121  0.38358300     0.11500
H1076       H  0.66523876  0.53873672  0.45097437     0.11800
H1077       H  0.65531494  0.52770387  0.32061009     0.14500
H1078       H  0.66222466  0.47800936  0.31098703     0.13300
H1079       H  0.65571726  0.47337032  0.49836115     0.10900
H1080       H  0.65222448  0.52490584  0.50967709     0.13000
C1081       C  0.54690410  0.57553498  0.25136044     0.19000
C1082       C  0.56352661  0.57404693  0.27794549    -0.19000
C1083       C  0.58185816  0.56581744  0.26737235    -0.11300
C1084       C  0.58423446  0.55894448  0.23006658     0.21300
C1085       C  0.56686618  0.55937886  0.20380857    -0.20700
C1086       C  0.54847115  0.56755211  0.21441755    -0.11500
C1087       C  0.60633582  0.55343073  0.21996782    -0.15700
C1088       C  0.61146998  0.54584704  0.18608536    -0.29500
C1089       C  0.53071981  0.58890063  0.25886522    -0.03800
C1090       C  0.52697724  0.59799261  0.29241900    -0.40300
H1091       H  0.56340571  0.58034984  0.30646154     0.12400
H1092       H  0.59495263  0.56572960  0.28831761     0.12100
H1093       H  0.56794743  0.55440615  0.17481315     0.11500
H1094       H  0.53611825  0.56870132  0.19313081     0.11800
H1095       H  0.61984008  0.55650985  0.24229964     0.14500
H1096       H  0.59812724  0.54146976  0.16321871     0.13300
H1097       H  0.52390696  0.59430246  0.23387023     0.10900
H1098       H  0.53212433  0.59211415  0.31849907     0.13000
C1099       C  0.74147525  0.64608901  0.06786796     0.19000
C1100       C  0.73542325  0.65180653  0.03205307    -0.19000
C1101       C  0.75073603  0.67791577  0.01453490    -0.11300
C1102       C  0.77264324  0.69889063  0.03243891     0.21300
C1103       C  0.77925611  0.69282058  0.06749034    -0.20700
C1104       C  0.76409062  0.66684893  0.08487066    -0.11500
C1105       C  0.78646909  0.72813638  0.01922133    -0.15700
C1106       C  0.78692361  0.73811110  0.98414721    -0.29500
C1107       C  0.72395536  0.61835984  0.08632838    -0.03800
C1108       C  0.72320494  0.61262607  0.12361608    -0.40300
H1109       H  0.71827033  0.63622022  0.01803451     0.12400
H1110       H  0.74465682  0.68191174  0.98793341     0.12100
H1111       H  0.79595231  0.70855350  0.08208676     0.11500
H1112       H  0.77021230  0.66334001  0.11169898     0.11800
H1113       H  0.79555600  0.74275119  0.04124418     0.14500
H1114       H  0.77983859  0.72475422  0.96049706     0.13300
H1115       H  0.71049505  0.60213701  0.06850357     0.10900
H1116       H  0.73561440  0.62866093  0.14231250     0.13000
C1117       C  0.57514858  0.35495744  0.68104980     0.19000
C1118       C  0.57985697  0.34031202  0.70890020    -0.19000
C1119       C  0.56818440  0.31190384  0.70700926    -0.11300
C1120       C  0.55179821  0.29787095  0.67715391     0.21300
C1121       C  0.54603227  0.31240480  0.65083874    -0.20700
C1122       C  0.55738400  0.34050651  0.65290791    -0.11500
C1123       C  0.54304562  0.26905711  0.66945390    -0.15700
C1124       C  0.53999460  0.25039821  0.69563872    -0.29500
C1125       C  0.59088024  0.38512001  0.67612725    -0.03800
C1126       C  0.60910673  0.40297221  0.69931549    -0.40300
H1127       H  0.59360473  0.35073588  0.73081474     0.12400
H1128       H  0.57339349  0.30136798  0.72748958     0.12100
H1129       H  0.53352165  0.30212177  0.62760113     0.11500
H1130       H  0.55337960  0.35120062  0.63104026     0.11800
H1131       H  0.53918442  0.26302684  0.64040465     0.14500
H1132       H  0.54215866  0.25535993  0.72516128     0.13300
H1133       H  0.58882942  0.39320713  0.64935953     0.10900
H1134       H  0.61121295  0.39700370  0.72746602     0.13000
C1135       C  0.41029133  0.96901450  0.74638182     0.19000
C1136       C  0.41619919  0.98082035  0.70980542    -0.19000
C1137       C  0.43191241  0.00905207  0.70375406    -0.11300
C1138       C  0.44225538  0.02621251  0.73434880     0.21300
C1139       C  0.43788570  0.01426091  0.77069901    -0.20700
C1140       C  0.42205253  0.98599207  0.77677020    -0.11500
C1141       C  0.45424017  0.05629731  0.73073769    -0.15700
C1142       C  0.45896603  0.07078183  0.69808457    -0.29500
C1143       C  0.38938275  0.93968251  0.75127065    -0.03800
C1144       C  0.38103803  0.92503841  0.78414697    -0.40300
H1145       H  0.40746751  0.96824187  0.68582053     0.12400
H1146       H  0.43455222  0.01714448  0.67530336     0.12100
H1147       H  0.44558813  0.02695747  0.79484678     0.11500
H1148       H  0.41810216  0.97790477  0.80540898     0.11800
H1149       H  0.45680153  0.06670109  0.75704552     0.14500
H1150       H  0.45785504  0.06174835  0.67108696     0.13300
H1151       H  0.37896869  0.92987402  0.72613700     0.10900
H1152       H  0.39153707  0.93304104  0.80974040     0.13000
C1153       C  0.36491547  0.09809987  0.59556681     0.19000
C1154       C  0.36295334  0.08834358  0.55906684    -0.19000
C1155       C  0.33831937  0.07532984  0.54174806    -0.11300
C1156       C  0.31486848  0.07199904  0.56041959     0.21300
C1157       C  0.31695718  0.08209909  0.59683221    -0.20700
C1158       C  0.34160593  0.09499441  0.61422080    -0.11500
C1159       C  0.28787812  0.05795171  0.54359717    -0.15700
C1160       C  0.28310587  0.04806267  0.50857931    -0.29500
C1161       C  0.39168650  0.11185862  0.61267760    -0.03800
C1162       C  0.39500112  0.11320908  0.65010296    -0.40300
H1163       H  0.38057605  0.09053421  0.54395187     0.12400
H1164       H  0.33805210  0.06792779  0.51388977     0.12100
H1165       H  0.29940037  0.08004711  0.61196503     0.11500
H1166       H  0.34234413  0.10285287  0.64196709     0.11800
H1167       H  0.27096280  0.05539467  0.56124433     0.14500
H1168       H  0.29933106  0.05022955  0.48996459     0.13300
H1169       H  0.40936011  0.11980222  0.59364162     0.10900
H1170       H  0.37757855  0.10368301  0.66961018     0.13000
C1171       C  0.49713490  0.16147586  0.97803100     0.19000
C1172       C  0.51759794  0.17794715  0.95120662    -0.19000
C1173       C  0.51328281  0.17469239  0.91280759    -0.11300
C1174       C  0.48815486  0.15481323  0.90020423     0.21300
C1175       C  0.46748387  0.13861425  0.92715596    -0.20700
C1176       C  0.47184201  0.14189311  0.96567606    -0.11500
C1177       C  0.48232345  0.15083093  0.85955387    -0.15700
C1178       C  0.50104179  0.16289095  0.83109818    -0.29500
C1179       C  0.50312145  0.16580209  0.01840709    -0.03800
C1180       C  0.48974305  0.14661297  0.04584561    -0.40300
H1181       H  0.53716575  0.19337384  0.96001133     0.12400
H1182       H  0.52974079  0.18817419  0.89354891     0.12100
H1183       H  0.44781459  0.12341068  0.91838503     0.11500
H1184       H  0.45527196  0.12937291  0.98549477     0.11800
H1185       H  0.46157485  0.13718160  0.85277840     0.14500
H1186       H  0.52204554  0.17592580  0.83658517     0.13300
H1187       H  0.52032710  0.18517912  0.02551309     0.10900
H1188       H  0.47309873  0.12672713  0.03941777     0.13000
C1189       C  0.48017195  0.13828444  0.47961196     0.19000
C1190       C  0.50448236  0.15258988  0.45787010    -0.19000
C1191       C  0.50455688  0.15307861  0.41858743    -0.11300
C1192       C  0.48028795  0.13922109  0.40023075     0.21300
C1193       C  0.45613867  0.12420599  0.42202519    -0.20700
C1194       C  0.45609015  0.12364859  0.46132603    -0.11500
C1195       C  0.47916325  0.13889107  0.35860853    -0.15700
C1196       C  0.49909156  0.15669738  0.33429847    -0.29500
C1197       C  0.47956018  0.13860740  0.52131315    -0.03800
C1198       C  0.49678623  0.16099081  0.53918793    -0.40300
H1199       H  0.52352378  0.16320321  0.47117904     0.12400
H1200       H  0.52366255  0.16396542  0.40292811     0.12100
H1201       H  0.43717500  0.11303036  0.40858596     0.11500
H1202       H  0.43717203  0.11226556  0.47747745     0.11800
H1203       H  0.46043549  0.12331816  0.34745594     0.14500
H1204       H  0.51763078  0.17327209  0.34428020     0.13300
H1205       H  0.46406683  0.12083990  0.53734595     0.10900
H1206       H  0.51113152  0.17923216  0.52286081     0.13000
C1207       C  0.55969359  0.29464944  0.15976246     0.19000
C1208       C  0.55682374  0.30837614  0.12900836    -0.19000
C1209       C  0.56663535  0.33636532  0.12950463    -0.11300
C1210       C  0.58001457  0.35164616  0.16054484     0.21300
C1211       C  0.58233413  0.33787835  0.19203164    -0.20700
C1212       C  0.57218663  0.30957986  0.19166580    -0.11500
C1213       C  0.59343975  0.38192445  0.15619436    -0.15700
C1214       C  0.60680285  0.40053907  0.18241070    -0.29500
C1215       C  0.55146009  0.26543556  0.15583103    -0.03800
C1216       C  0.54437095  0.24741938  0.18495005    -0.40300
H1217       H  0.54740535  0.29747332  0.10405999     0.12400
H1218       H  0.56457023  0.34630714  0.10475275     0.12100
H1219       H  0.59281513  0.34890994  0.21626167     0.11500
H1220       H  0.57527485  0.29975875  0.21560083     0.11800
H1221       H  0.59339116  0.38953154  0.12802702     0.14500
H1222       H  0.60644969  0.39436360  0.21148358     0.13300
H1223       H  0.55088547  0.25840753  0.12740276     0.10900
H1224       H  0.54345679  0.25366596  0.21342232     0.13000
C1225       C  0.40097712  0.95933485  0.25226691     0.19000
C1226       C  0.41019927  0.97172902  0.21612799    -0.19000
C1227       C  0.42342522  0.00013260  0.21078158    -0.11300
C1228       C  0.42776428  0.01685241  0.24166369     0.21300
C1229       C  0.41976377  0.00453395  0.27793521    -0.20700
C1230       C  0.40655078  0.97617246  0.28327887    -0.11500
C1231       C  0.43787414  0.04664251  0.23750252    -0.15700
C1232       C  0.44944724  0.06229545  0.20584180    -0.29500
C1233       C  0.38267783  0.92916731  0.25543075    -0.03800
C1234       C  0.37312796  0.91407094  0.28800215    -0.40300
H1235       H  0.40607886  0.95930693  0.19163919     0.12400
H1236       H  0.42891880  0.00861258  0.18232234     0.12100
H1237       H  0.42279196  0.01687811  0.30226785     0.11500
H1238       H  0.39961505  0.96769978  0.31153847     0.11800
H1239       H  0.43494347  0.05613667  0.26213684     0.14500
H1240       H  0.45406022  0.05411249  0.18120198     0.13300
H1241       H  0.37496645  0.91914324  0.22916037     0.10900
H1242       H  0.38109741  0.92282086  0.31472919     0.13000
C1243       C  0.37063500  0.10633701  0.09882963     0.19000
C1244       C  0.36953079  0.09796225  0.06158387    -0.19000
C1245       C  0.34550104  0.08626274  0.04286633    -0.11300
C1246       C  0.32190058  0.08286598  0.06095934     0.21300
C1247       C  0.32309650  0.09157811  0.09798893    -0.20700
C1248       C  0.34712211  0.10329383  0.11669707    -0.11500
C1249       C  0.29543858  0.06952055  0.04317750    -0.15700
C1250       C  0.29202305  0.06476440  0.00615802    -0.29500
C1251       C  0.39649997  0.11724354  0.11785289    -0.03800
C1252       C  0.39966737  0.12201416  0.15497879    -0.40300
H1253       H  0.38726865  0.09997124  0.04706215     0.12400
H1254       H  0.34556495  0.07940703  0.01469177     0.12100
H1255       H  0.30526481  0.08922686  0.11265485     0.11500
H1256       H  0.34690989  0.10975256  0.14505971     0.11800
H1257       H  0.27780743  0.06345607  0.06168582     0.14500
H1258       H  0.30912744  0.07107703  0.98663850     0.13300
H1259       H  0.41363520  0.12007857  0.10047378     0.10900
H1260       H  0.38306644  0.11899547  0.17354720     0.13000
C1261       C  0.90246725  0.20468077  0.56555822     0.19000
C1262       C  0.89125875  0.21846862  0.54779799    -0.19000
C1263       C  0.88076657  0.23191026  0.56887836    -0.11300
C1264       C  0.88129414  0.23200241  0.60857125     0.21300
C1265       C  0.89125441  0.21700894  0.62631003    -0.20700
C1266       C  0.90157718  0.20344635  0.60524436    -0.11500
C1267       C  0.87225578  0.24767049  0.63255485    -0.15700
C1268       C  0.86734404  0.26676405  0.61870987    -0.29500
C1269       C  0.91526235  0.19233583  0.54190797    -0.03800
C1270       C  0.93399486  0.18729786  0.55482892    -0.40300
H1271       H  0.89111762  0.21934810  0.51736628     0.12400
H1272       H  0.87244734  0.24217389  0.55360939     0.12100
H1273       H  0.89146113  0.21611233  0.65672896     0.11500
H1274       H  0.90880425  0.19206245  0.62037917     0.11800
H1275       H  0.87107680  0.24445672  0.66290964     0.14500
H1276       H  0.86931815  0.27105407  0.58865753     0.13300
H1277       H  0.91060687  0.18918762  0.51241404     0.10900
H1278       H  0.94003516  0.19202554  0.58355669     0.13000
C1279       C  0.78067657  0.42913876  0.68580213     0.19000
C1280       C  0.78417053  0.44872144  0.65820378    -0.19000
C1281       C  0.76763400  0.46000524  0.65843962    -0.11300
C1282       C  0.74693476  0.45187577  0.68631011     0.21300
C1283       C  0.74440944  0.43354661  0.71531107    -0.20700
C1284       C  0.76095877  0.42207943  0.71498200    -0.11500
C1285       C  0.72708379  0.46123143  0.68500978    -0.15700
C1286       C  0.71975279  0.46754845  0.65247360    -0.29500
C1287       C  0.79581757  0.41461815  0.67967705    -0.03800
C1288       C  0.79688616  0.39651146  0.70355480    -0.40300
H1289       H  0.79926810  0.45470787  0.63545449     0.12400
H1290       H  0.77088783  0.47476940  0.63638164     0.12100
H1291       H  0.72877652  0.42713103  0.73736329     0.11500
H1292       H  0.75744692  0.40693798  0.73657311     0.11800
H1293       H  0.71620871  0.46017415  0.71114095     0.14500
H1294       H  0.72894867  0.46658266  0.62584694     0.13300
H1295       H  0.80568722  0.41801320  0.65188683     0.10900
H1296       H  0.78892312  0.39339626  0.73242208     0.13000
C1297       C  0.64785618  0.21870288  0.68328340     0.19000
C1298       C  0.66483515  0.22172767  0.65207644    -0.19000
C1299       C  0.69263380  0.23832465  0.65334316    -0.11300
C1300       C  0.70418592  0.25271295  0.68583128     0.21300
C1301       C  0.68738935  0.24834397  0.71793118    -0.20700
C1302       C  0.65942233  0.23161523  0.71668479    -0.11500
C1303       C  0.73335586  0.27331727  0.68640342    -0.15700
C1304       C  0.74798525  0.28749243  0.65515110    -0.29500
C1305       C  0.61857765  0.20495134  0.67762328    -0.03800
C1306       C  0.59881842  0.19653705  0.70483318    -0.40300
H1307       H  0.65649144  0.21188110  0.62604520     0.12400
H1308       H  0.70491046  0.24020410  0.62853060     0.12100
H1309       H  0.69581927  0.25895684  0.74346128     0.11500
H1310       H  0.64701214  0.23002547  0.74117551     0.11800
H1311       H  0.74237915  0.27866466  0.71357151     0.14500
H1312       H  0.73868114  0.28355644  0.62822419     0.13300
H1313       H  0.61305497  0.20273820  0.64841855     0.10900
H1314       H  0.60296021  0.19664052  0.73435090     0.13000
C1315       C  0.02287750  0.41767587  0.74610432     0.19000
C1316       C  0.01470440  0.41658266  0.70901869    -0.19000
C1317       C  0.98740195  0.40335204  0.70114879    -0.11300
C1318       C  0.96747872  0.39063161  0.73032132     0.21300
C1319       C  0.97569101  0.39244905  0.76751378    -0.20700
C1320       C  0.00298657  0.40581551  0.77539450    -0.11500
C1321       C  0.93825378  0.37296649  0.72334760    -0.15700
C1322       C  0.92637653  0.37178447  0.69068092    -0.29500
C1323       C  0.05194338  0.42836456  0.75213331    -0.03800
C1324       C  0.06406543  0.43580578  0.78541608    -0.40300
H1325       H  0.02955751  0.42528776  0.68578176     0.12400
H1326       H  0.98213936  0.40214097  0.67209154     0.12100
H1327       H  0.96086360  0.38267174  0.79059897     0.11500
H1328       H  0.00831840  0.40563181  0.80418471     0.11800
H1329       H  0.92578148  0.35946220  0.74672501     0.14500
H1330       H  0.93767255  0.38584963  0.66726198     0.13300
H1331       H  0.06401428  0.42941228  0.72731985     0.10900
H1332       H  0.05324713  0.43670018  0.81038813     0.13000
C1333       C  0.83390845  0.33480260  0.95719395     0.19000
C1334       C  0.81202798  0.32872779  0.93512459    -0.19000
C1335       C  0.81319274  0.32484802  0.89657541    -0.11300
C1336       C  0.83645657  0.32706790  0.87912284     0.21300
C1337       C  0.85813155  0.33260946  0.90129210    -0.20700
C1338       C  0.85695583  0.33644680  0.93987746    -0.11500
C1339       C  0.83892779  0.32328112  0.83823294    -0.15700
C1340       C  0.82297924  0.32439764  0.81248487    -0.29500
C1341       C  0.83133774  0.33876630  0.99800095    -0.03800
C1342       C  0.85124160  0.34718076  0.02221100    -0.40300
H1343       H  0.79386028  0.32694666  0.94777407     0.12400
H1344       H  0.79566912  0.31976273  0.88095295     0.12100
H1345       H  0.87617259  0.33410857  0.88864979     0.11500
H1346       H  0.87411016  0.34049200  0.95567384     0.11800
H1347       H  0.85539532  0.32045564  0.82872960     0.14500
H1348       H  0.80704388  0.32829778  0.82069309     0.13300
H1349       H  0.81170584  0.33454614  0.00868955     0.10900
H1350       H  0.87117113  0.35166818  0.01309736     0.13000
C1351       C  0.84700586  0.34122507  0.37770919     0.19000
C1352       C  0.86681254  0.34176923  0.40013261    -0.19000
C1353       C  0.86591669  0.34468252  0.43914716    -0.11300
C1354       C  0.84505340  0.34711962  0.45659349     0.21300
C1355       C  0.82551934  0.34691073  0.43410711    -0.20700
C1356       C  0.82635691  0.34393689  0.39531932    -0.11500
C1357       C  0.84185574  0.34903526  0.49793007    -0.15700
C1358       C  0.85745184  0.34774132  0.52422457    -0.29500
C1359       C  0.84858896  0.33752810  0.33642259    -0.03800
C1360       C  0.83155602  0.33776595  0.31160815    -0.40300
H1361       H  0.88301137  0.33977599  0.38743900     0.12400
H1362       H  0.88147019  0.34481649  0.45521039     0.12100
H1363       H  0.80916957  0.34870211  0.44669718     0.11500
H1364       H  0.81049904  0.34354074  0.37980453     0.11800
H1365       H  0.82471572  0.35075508  0.50741453     0.14500
H1366       H  0.87499298  0.34636163  0.51648356     0.13300
H1367       H  0.86478249  0.33457419  0.32592370     0.10900
H1368       H  0.81532912  0.34095902  0.32057885     0.13000
C1369       C  0.89931634  0.25414470  0.10872203     0.19000
C1370       C  0.89945030  0.23089766  0.12182805    -0.19000
C1371       C  0.91121299  0.21915143  0.09970214    -0.11300
C1372       C  0.92375893  0.23085366  0.06408935     0.21300
C1373       C  0.92384946  0.25431704  0.05132558    -0.20700
C1374       C  0.91193601  0.26590661  0.07331972    -0.11500
C1375       C  0.93717307  0.21964515  0.03948121    -0.15700
C1376       C  0.94369377  0.20143245  0.05180312    -0.29500
C1377       C  0.88678161  0.26632659  0.13288821    -0.03800
C1378       C  0.87611686  0.28039089  0.11818863    -0.40300
H1379       H  0.89006244  0.22154601  0.14907493     0.12400
H1380       H  0.91001782  0.20079505  0.11071904     0.12100
H1381       H  0.93349808  0.26397659  0.02432161     0.11500
H1382       H  0.91317500  0.28442886  0.06275547     0.11800
H1383       H  0.94315777  0.22775808  0.01071005     0.14500
H1384       H  0.93907002  0.19398264  0.08084499     0.13300
H1385       H  0.88650552  0.26381085  0.16326413     0.10900
H1386       H  0.87551025  0.28196794  0.08782663     0.13000
C1387       C  0.74571361  0.45716045  0.18170528     0.19000
C1388       C  0.74380740  0.43937221  0.21106151    -0.19000
C1389       C  0.76094465  0.42861627  0.21104010    -0.11300
C1390       C  0.78064502  0.43584923  0.18180354     0.21300
C1391       C  0.78355954  0.45496496  0.15382156    -0.20700
C1392       C  0.76639921  0.46553330  0.15373195    -0.11500
C1393       C  0.79602075  0.42156514  0.17587762    -0.15700
C1394       C  0.79794360  0.40435794  0.20050106    -0.29500
C1395       C  0.72525557  0.46570266  0.18029902    -0.03800
C1396       C  0.71723502  0.47108764  0.14773033    -0.40300
H1397       H  0.72817809  0.43276927  0.23315691     0.12400
H1398       H  0.75783052  0.41376107  0.23285521     0.12100
H1399       H  0.79862609  0.46104565  0.13100587     0.11500
H1400       H  0.76912911  0.47989300  0.13135984     0.11800
H1401       H  0.80509378  0.42413454  0.14768210     0.14500
H1402       H  0.79089189  0.40224312  0.22970748     0.13300
H1403       H  0.71451935  0.46475898  0.20651234     0.10900
H1404       H  0.72631263  0.46994256  0.12108794     0.13000
C1405       C  0.65093888  0.21817300  0.19299659     0.19000
C1406       C  0.66901719  0.21959533  0.16434489    -0.19000
C1407       C  0.69641134  0.23876416  0.16498377    -0.11300
C1408       C  0.70643027  0.25721378  0.19427507     0.21300
C1409       C  0.68868765  0.25474948  0.22415733    -0.20700
C1410       C  0.66114983  0.23555074  0.22347797    -0.11500
C1411       C  0.73498703  0.27972387  0.19357151    -0.15700
C1412       C  0.74905353  0.29190913  0.16110525    -0.29500
C1413       C  0.62169751  0.20121862  0.18686772    -0.03800
C1414       C  0.60153134  0.19492426  0.21276542    -0.40300
H1415       H  0.66177782  0.20642291  0.14057621     0.12400
H1416       H  0.70960722  0.23937945  0.14214591     0.12100
H1417       H  0.69594828  0.26858297  0.24720960     0.11500
H1418       H  0.64790460  0.23540786  0.24582967     0.11800
H1419       H  0.74385620  0.28791834  0.22020517     0.14500
H1420       H  0.73948234  0.28520020  0.13451013     0.13300
H1421       H  0.61651514  0.19516190  0.15807823     0.10900
H1422       H  0.60551139  0.19898660  0.24226128     0.13000
C1423       C  0.96845214  0.40681518  0.22406791     0.19000
C1424       C  0.98839462  0.41193310  0.19611734    -0.19000
C1425       C  0.01480950  0.42133674  0.20591785    -0.11300
C1426       C  0.02191710  0.42591121  0.24365802     0.21300
C1427       C  0.00234768  0.42242137  0.27126213    -0.20700
C1428       C  0.97591902  0.41296616  0.26147202    -0.11500
C1429       C  0.04879621  0.43086497  0.25315210    -0.15700
C1430       C  0.06053172  0.43979573  0.28624411    -0.29500
C1431       C  0.93935467  0.39095222  0.21692967    -0.03800
C1432       C  0.92864418  0.38576600  0.18276423    -0.40300
H1433       H  0.98347042  0.40707557  0.16712243     0.12400
H1434       H  0.02949877  0.42379066  0.18408417     0.12100
H1435       H  0.00685186  0.42533393  0.30066498     0.11500
H1436       H  0.96090006  0.40901415  0.28361651     0.11800
H1437       H  0.05943193  0.42620173  0.23141158     0.14500
H1438       H  0.05179575  0.44665142  0.30782192     0.13300
H1439       H  0.92594725  0.38104855  0.24158135     0.10900
H1440       H  0.94064247  0.39650585  0.15746253     0.13000
loop_ 
_geom_bond_atom_site_label_1 
_geom_bond_atom_site_label_2 
_geom_bond_distance 
_geom_bond_site_symmetry_2 
_ccdc_geom_bond_type 
O1           Ni7   1.927       .  S
O1           C22   1.272       .  A
O2          Ni25   1.907       .  S
O2           C11   1.270       .  A
O3           Ni7   1.901       .  S
O3          Ni25   1.904       .  S
O3          Ni19   1.897       .  S
O3           H26   0.966       .  S
C4           O21   1.267       .  A
C4           O13   1.276       .  A
C4         C1378   1.479       .  S
O5          Ni24   1.930       .  S
O5           C11   1.273       .  A
O6          Ni24   1.895       .  S
O6            C8   1.269       .  A
Ni7          O10   1.913       .  S
Ni7          O12   1.906       .  S
C8           O18   1.277       .  A
C8         C1432   1.480       .  S
O9          Ni25   1.942       .  S
O9           C15   1.283       .  A
O10          C15   1.276       .  A
C11        C1360   1.477       .  S
O12          C14   1.267       .  A
O13         Ni24   1.939       .  S
C14          O20   1.272       .  A
C14        C1412   1.479       .  S
C15        C1394   1.489       .  S
H16          O17   0.966       .  S
O17         Ni25   1.933       .  S
O17         Ni19   1.910       .  S
O17         Ni24   1.913       .  S
O18         Ni19   1.943       .  S
Ni19         O23   1.902       .  S
Ni19         O21   1.903       .  S
O20         Ni25   1.935       .  S
C22          O23   1.265       .  A
C22        C1342   1.475       .  S
O27         Ni33   1.925       .  S
O27          C48   1.272       .  A
O28         Ni51   1.902       .  S
O28          C37   1.267       .  A
O29         Ni33   1.906       .  S
O29         Ni51   1.908       .  S
O29         Ni45   1.903       .  S
O29          H52   0.966       .  S
C30          O47   1.269       .  A
C30          O39   1.279       .  A
C30        C1268   1.485       .  S
O31         Ni50   1.936       .  S
O31          C37   1.276       .  A
O32         Ni50   1.907       .  S
O32          C34   1.271       .  A
Ni33         O36   1.914       .  S
Ni33         O38   1.909       .  S
C34          O44   1.279       .  A
C34        C1322   1.492       .  S
O35         Ni51   1.940       .  S
O35          C41   1.281       .  A
O36          C41   1.275       .  A
C37        C1340   1.475       .  S
O38          C40   1.267       .  A
O39         Ni50   1.947       .  S
C40          O46   1.271       .  A
C40        C1304   1.478       .  S
C41        C1288   1.489       .  S
H42          O43   0.966       .  S
O43         Ni51   1.929       .  S
O43         Ni45   1.906       .  S
O43         Ni50   1.912       .  S
O44         Ni45   1.949       .  S
Ni45         O49   1.908       .  S
Ni45         O47   1.904       .  S
O46         Ni51   1.930       .  S
C48          O49   1.267       .  A
C48        C1358   1.481       .  S
O53         Ni59   1.941       .  S
O53          C74   1.276       .  A
O54         Ni77   1.919       .  S
O54          C63   1.272       .  A
O55         Ni59   1.900       .  S
O55         Ni77   1.904       .  S
O55         Ni71   1.897       .  S
O55          H78   0.966       .  S
C56          O73   1.271       .  A
C56          O65   1.275       .  A
C56        C1252   1.481       .  S
O57         Ni76   1.919       .  S
O57          C63   1.271       .  A
O58         Ni76   1.905       .  S
O58          C60   1.269       .  A
Ni59         O62   1.921       .  S
Ni59         O64   1.915       .  S
C60          O70   1.274       .  A
C60        C1232   1.484       .  S
O61         Ni77   1.933       .  S
O61          C67   1.283       .  A
O62          C67   1.279       .  A
C63        C1196   1.478       .  S
O64          C66   1.271       .  A
O65         Ni76   1.930       .  S
C66          O72   1.271       .  A
C66        C1216   1.484       .  S
C67        C1414   1.485       .  S
H68          O69   0.966       .  S
O69         Ni77   1.926       .  S
O69         Ni71   1.900       .  S
O69         Ni76   1.904       .  S
O70         Ni71   1.936       .  S
Ni71         O75   1.893       .  S
Ni71         O73   1.908       .  S
O72         Ni77   1.929       .  S
C74          O75   1.264       .  A
C74        C1180   1.475       .  S
O79         Ni85   1.920       .  S
O79         C100   1.268       .  A
O80        Ni103   1.899       .  S
O80          C89   1.265       .  A
O81         Ni85   1.902       .  S
O81        Ni103   1.891       .  S
O81         Ni97   1.891       .  S
O81         H104   0.966       .  S
C82          O99   1.265       .  A
C82          O91   1.269       .  A
C82        C1162   1.485       .  S
O83        Ni102   1.923       .  S
O83          C89   1.270       .  A
O84        Ni102   1.892       .  S
O84          C86   1.272       .  A
Ni85         O88   1.916       .  S
Ni85         O90   1.907       .  S
C86          O96   1.283       .  A
C86        C1142   1.480       .  S
O87        Ni103   1.932       .  S
O87          C93   1.280       .  A
O88          C93   1.277       .  A
C89        C1178   1.476       .  S
O90          C92   1.268       .  A
O91        Ni102   1.934       .  S
C92          O98   1.267       .  A
C92        C1124   1.478       .  S
C93        C1306   1.484       .  S
H94          O95   0.966       .  S
O95        Ni103   1.954       .  S
O95         Ni97   1.928       .  S
O95        Ni102   1.923       .  S
O96         Ni97   1.956       .  S
Ni97        O101   1.914       .  S
Ni97         O99   1.907       .  S
O98        Ni103   1.926       .  S
C100        O101   1.270       .  A
C100       C1198   1.470       .  S
O105       Ni111   1.924       .  S
O105        C126   1.273       .  A
O106       Ni129   1.905       .  S
O106        C115   1.268       .  A
O107       Ni111   1.896       .  S
O107       Ni129   1.898       .  S
O107       Ni123   1.903       .  S
O107        H130   0.966       .  S
C108        O125   1.273       .  A
C108        O117   1.277       .  A
C108       C1108   1.490       .  S
O109       Ni128   1.931       .  S
O109        C115   1.274       .  A
O110       Ni128   1.902       .  S
O110        C112   1.269       .  A
Ni111       O114   1.917       .  S
Ni111       O116   1.914       .  S
C112        O122   1.279       .  A
C112       C1088   1.492       .  S
O113       Ni129   1.941       .  S
O113        C119   1.284       .  A
O114        C119   1.279       .  A
C115       C1070   1.475       .  S
O116        C118   1.268       .  A
O117       Ni128   1.937       .  S
C118        O124   1.270       .  A
C118       C1396   1.483       .  S
C119       C1214   1.490       .  S
H120        O121   0.966       .  S
O121       Ni129   1.931       .  S
O121       Ni123   1.908       .  S
O121       Ni128   1.903       .  S
O122       Ni123   1.951       .  S
Ni123       O127   1.907       .  S
Ni123       O125   1.922       .  S
O124       Ni129   1.931       .  S
C126        O127   1.268       .  A
C126       C1052   1.476       .  S
O131       Ni137   1.935       .  S
O131        C152   1.274       .  A
O132       Ni155   1.901       .  S
O132        C141   1.267       .  A
O133       Ni137   1.900       .  S
O133       Ni155   1.899       .  S
O133       Ni149   1.889       .  S
O133        H156   0.967       .  S
C134        O151   1.266       .  A
C134        O143   1.277       .  A
C134       C1034   1.478       .  S
O135       Ni154   1.932       .  S
O135        C141   1.273       .  A
O136       Ni154   1.904       .  S
O136        C138   1.270       .  A
Ni137       O140   1.921       .  S
Ni137       O142   1.916       .  S
C138        O148   1.278       .  A
C138       C1016   1.487       .  S
O139       Ni155   1.925       .  S
O139        C145   1.280       .  A
O140        C145   1.279       .  A
C141       C1054   1.472       .  S
O142        C144   1.269       .  A
O143       Ni154   1.938       .  S
C144        O150   1.270       .  A
C144       C1286   1.483       .  S
C145       C1126   1.478       .  S
H146        O147   0.966       .  S
O147       Ni155   1.928       .  S
O147       Ni149   1.910       .  S
O147       Ni154   1.913       .  S
O148       Ni149   1.945       .  S
Ni149       O153   1.896       .  S
Ni149       O151   1.900       .  S
O150       Ni155   1.934       .  S
C152        O153   1.266       .  A
C152       C1072   1.473       .  S
O157       Ni163   1.917       .  S
O157        C178   1.269       .  A
O158       Ni181   1.893       .  S
O158        C167   1.265       .  A
O159       Ni163   1.891       .  S
O159       Ni181   1.883       .  S
O159       Ni175   1.901       .  S
O159        H182   0.966       .  S
C160        O177   1.271       .  A
C160        O169   1.277       .  A
C160        C964   1.480       .  S
O161       Ni180   1.938       .  S
O161        C167   1.275       .  A
O162       Ni180   1.896       .  S
O162        C164   1.270       .  A
Ni163       O166   1.906       .  S
Ni163       O168   1.925       .  S
C164        O174   1.282       .  A
C164       C1234   1.485       .  S
O165       Ni181   1.950       .  S
O165        C171   1.285       .  A
O166        C171   1.277       .  A
C167        C944   1.474       .  S
O168        C170   1.271       .  A
O169       Ni180   1.939       .  S
C170        O176   1.263       .  A
C170        C980   1.477       .  S
C171        C998   1.479       .  S
H172        O173   0.966       .  S
O173       Ni181   1.926       .  S
O173       Ni175   1.916       .  S
O173       Ni180   1.900       .  S
O174       Ni175   1.958       .  S
Ni175       O179   1.927       .  S
Ni175       O177   1.909       .  S
O176       Ni181   1.913       .  S
C178        O179   1.275       .  A
C178        C926   1.474       .  S
O183       Ni189   1.942       .  S
O183        C204   1.275       .  A
O184       Ni207   1.926       .  S
O184        C193   1.274       .  A
O185       Ni189   1.897       .  S
O185       Ni207   1.903       .  S
O185       Ni201   1.885       .  S
O185        H208   0.967       .  S
C186        O203   1.265       .  A
C186        O195   1.276       .  A
C186        C874   1.480       .  S
O187       Ni206   1.922       .  S
O187        C193   1.269       .  A
O188       Ni206   1.897       .  S
O188        C190   1.268       .  A
Ni189       O192   1.918       .  S
Ni189       O194   1.915       .  S
C190        O200   1.273       .  A
C190       C1144   1.479       .  S
O191       Ni207   1.940       .  S
O191        C197   1.285       .  A
O192        C197   1.280       .  A
C193        C928   1.474       .  S
O194        C196   1.271       .  A
O195       Ni206   1.939       .  S
C196        O202   1.270       .  A
C196        C890   1.483       .  S
C197        C908   1.486       .  S
H198        O199   0.966       .  S
O199       Ni207   1.938       .  S
O199       Ni201   1.912       .  S
O199       Ni206   1.915       .  S
O200       Ni201   1.934       .  S
Ni201       O205   1.891       .  S
Ni201       O203   1.900       .  S
O202       Ni207   1.931       .  S
C204        O205   1.262       .  A
C204        C946   1.474       .  S
O209       Ni215   1.940       .  S
O209        C230   1.277       .  A
O210       Ni233   1.923       .  S
O210        C219   1.275       .  A
O211       Ni215   1.890       .  S
O211       Ni233   1.896       .  S
O211       Ni227   1.888       .  S
O211        H234   0.967       .  S
C212        O229   1.268       .  A
C212        O221   1.273       .  A
C212        C854   1.475       .  S
O213       Ni232   1.920       .  S
O213        C219   1.270       .  A
O214       Ni232   1.907       .  S
O214        C216   1.272       .  A
Ni215       O218   1.923       .  S
Ni215       O220   1.917       .  S
C216        O226   1.277       .  A
C216       C1430   1.480       .  S
O217       Ni233   1.932       .  S
O217        C223   1.283       .  A
O218        C223   1.280       .  A
C219        C820   1.477       .  S
O220        C222   1.272       .  A
O221       Ni232   1.930       .  S
C222        O228   1.271       .  A
C222        C838   1.480       .  S
C223        C982   1.480       .  S
H224        O225   0.966       .  S
O225       Ni233   1.933       .  S
O225       Ni227   1.906       .  S
O225       Ni232   1.900       .  S
O226       Ni227   1.935       .  S
Ni227       O231   1.899       .  S
Ni227       O229   1.911       .  S
O228       Ni233   1.934       .  S
C230        O231   1.269       .  A
C230        C800   1.477       .  S
O235       Ni241   1.922       .  S
O235        C256   1.272       .  A
O236       Ni259   1.904       .  S
O236        C245   1.266       .  A
O237       Ni241   1.899       .  S
O237       Ni259   1.893       .  S
O237       Ni253   1.900       .  S
O237        H260   0.966       .  S
C238        O255   1.270       .  A
C238        O247   1.275       .  A
C238        C784   1.487       .  S
O239       Ni258   1.932       .  S
O239        C245   1.274       .  A
O240       Ni258   1.900       .  S
O240        C242   1.271       .  A
Ni241       O244   1.917       .  S
Ni241       O246   1.919       .  S
C242        O252   1.283       .  A
C242       C1324   1.492       .  S
O243       Ni259   1.939       .  S
O243        C249   1.284       .  A
O244        C249   1.279       .  A
C245        C802   1.478       .  S
O246        C248   1.269       .  A
O247       Ni258   1.936       .  S
C248        O254   1.266       .  A
C248        C764   1.483       .  S
C249        C892   1.487       .  S
H250        O251   0.966       .  S
O251       Ni259   1.937       .  S
O251       Ni253   1.918       .  S
O251       Ni258   1.907       .  S
O252       Ni253   1.956       .  S
Ni253       O257   1.920       .  S
Ni253       O255   1.913       .  S
O254       Ni259   1.922       .  S
C256        O257   1.272       .  A
C256        C818   1.484       .  S
O261       Ni267   1.915       .  S
O261        C282   1.268       .  A
O262       Ni285   1.900       .  S
O262        C271   1.267       .  A
O263       Ni267   1.901       .  S
O263       Ni285   1.887       .  S
O263       Ni279   1.888       .  S
O263        H286   0.966       .  S
C264        O281   1.261       .  A
C264        O273   1.275       .  A
C264        C746   1.479       .  S
O265       Ni284   1.933       .  S
O265        C271   1.275       .  A
O266       Ni284   1.885       .  S
O266        C268   1.271       .  A
Ni267       O270   1.903       .  S
Ni267       O272   1.920       .  S
C268        O278   1.293       .  A
C268       C1090   1.492       .  S
O269       Ni285   1.949       .  S
O269        C275   1.285       .  A
O270        C275   1.277       .  A
C271        C728   1.478       .  S
O272        C274   1.268       .  A
O273       Ni284   1.955       .  S
C274        O280   1.264       .  A
C274       C1000   1.478       .  S
C275        C836   1.483       .  S
H276        O277   0.966       .  S
O277       Ni285   1.950       .  S
O277       Ni279   1.914       .  S
O277       Ni284   1.909       .  S
O278       Ni279   1.990       .  S
Ni279       O283   1.933       .  S
Ni279       O281   1.893       .  S
O280       Ni285   1.916       .  S
C282        O283   1.276       .  A
C282        C710   1.479       .  S
O287       Ni293   1.949       .  S
O287        C308   1.279       .  A
O288       Ni311   1.925       .  S
O288        C297   1.276       .  A
O289       Ni293   1.893       .  S
O289       Ni311   1.895       .  S
O289       Ni305   1.882       .  S
O289        H312   0.968       .  S
C290        O307   1.265       .  A
C290        O299   1.278       .  A
C290        C694   1.481       .  S
O291       Ni310   1.929       .  S
O291        C297   1.274       .  A
O292       Ni310   1.900       .  S
O292        C294   1.270       .  A
Ni293       O296   1.919       .  S
Ni293       O298   1.926       .  S
C294        O304   1.281       .  A
C294       C1018   1.489       .  S
O295       Ni311   1.944       .  S
O295        C301   1.289       .  A
O296        C301   1.281       .  A
C297        C712   1.479       .  S
O298        C300   1.273       .  A
O299       Ni310   1.948       .  S
C300        O306   1.270       .  A
C300        C910   1.487       .  S
C301        C766   1.488       .  S
H302        O303   0.965       .  S
O303       Ni311   1.939       .  S
O303       Ni305   1.902       .  S
O303       Ni310   1.902       .  S
O304       Ni305   1.952       .  S
Ni305       O309   1.892       .  S
Ni305       O307   1.898       .  S
O306       Ni311   1.929       .  S
C308        O309   1.266       .  A
C308        C730   1.477       .  S
O313       Ni319   1.926   1_545  S
O313        C334   1.273       .  A
O314       Ni337   1.905   1_545  S
O314        C323   1.267       .  A
O315       Ni319   1.900   1_556  S
O315       Ni337   1.887       .  S
O315       Ni331   1.884   1_566  S
O315        H338   0.967       .  S
C316        O333   1.261   1_556  A
C316        O325   1.267       .  A
C316       C1250   1.480   1_556  S
O317       Ni336   1.910       .  S
O317        C323   1.270       .  A
O318       Ni336   1.886       .  S
O318        C320   1.273   1_545  A
Ni319       O322   1.918       .  S
Ni319       O324   1.915   1_565  S
C320        O330   1.289       .  A
C320        C872   1.488       .  S
O321       Ni337   1.934       .  S
O321        C327   1.283       .  A
O322        C327   1.278   1_554  A
C323        C620   1.472       .  S
O324        C326   1.269   1_554  A
O325       Ni336   1.935       .  S
C326        O332   1.266       .  A
C326        C676   1.480       .  S
C327        C656   1.486       .  S
H328        O329   0.966       .  S
O329       Ni337   1.957   1_545  S
O329       Ni331   1.913   1_556  S
O329       Ni336   1.914       .  S
O330       Ni331   1.977   1_566  S
Ni331       O335   1.906       .  S
Ni331       O333   1.900       .  S
O332       Ni337   1.922   1_545  S
C334        O335   1.268       .  A
C334        C640   1.475       .  S
O339       Ni345   1.925   1_545  S
O339        C360   1.271       .  A
O340       Ni363   1.913       .  S
O340        C349   1.270       .  A
O341       Ni345   1.909       .  S
O341       Ni363   1.900       .  S
O341       Ni357   1.893   1_565  S
O341        H364   0.966       .  S
C342        O359   1.262       .  A
C342        O351   1.270       .  A
C342       C1160   1.484       .  S
O343       Ni362   1.911       .  S
O343        C349   1.270   1_545  A
O344       Ni362   1.892   1_565  S
O344        C346   1.271       .  A
Ni345       O348   1.914       .  S
Ni345       O350   1.908   1_565  S
C346        O356   1.285       .  A
C346        C962   1.487       .  S
O347       Ni363   1.939       .  S
O347        C353   1.282       .  A
O348        C353   1.276       .  A
C349        C638   1.479       .  S
O350        C352   1.268       .  A
O351       Ni362   1.941       .  S
C352        O358   1.269       .  A
C352        C604   1.481       .  S
C353        C584   1.489       .  S
H354        O355   0.966       .  S
O355       Ni363   1.950   1_545  S
O355       Ni357   1.912       .  S
O355       Ni362   1.915       .  S
O356       Ni357   1.973   1_565  S
Ni357       O361   1.897   1_545  S
Ni357       O359   1.904       .  S
O358       Ni363   1.930   1_545  S
C360        O361   1.264   1_545  A
C360        C622   1.470       .  S
O365       Ni371   1.939       .  S
O365        C386   1.276       .  A
O366       Ni389   1.895       .  S
O366        C375   1.265   1_455  A
O367       Ni371   1.913       .  S
O367       Ni389   1.889   1_554  S
O367       Ni383   1.880   1_455  S
O367        H390   0.968       .  S
C368        O385   1.257       .  A
C368        O377   1.273   1_554  A
C368       C1376   1.480       .  S
O369       Ni388   1.926       .  S
O369        C375   1.273       .  A
O370       Ni388   1.882   1_455  S
O370        C372   1.270       .  A
Ni371       O374   1.913       .  S
Ni371       O376   1.932   1_455  S
C372        O382   1.290   1_556  A
C372        C782   1.489       .  S
O373       Ni389   1.936       .  S
O373        C379   1.282       .  A
O374        C379   1.277   1_554  A
C375        C530   1.470   1_655  S
O376        C378   1.273       .  A
O377       Ni388   1.954       .  S
C378        O384   1.265   1_554  A
C378        C568   1.481   1_554  S
C379        C674   1.484       .  S
H380        O381   0.966       .  S
O381       Ni389   1.951   1_655  S
O381       Ni383   1.910   1_556  S
O381       Ni388   1.921       .  S
O382       Ni383   1.984   1_455  S
Ni383       O387   1.901   1_655  S
Ni383       O385   1.886       .  S
O384       Ni389   1.913   1_655  S
C386        O387   1.267       .  A
C386        C548   1.479       .  S
O391       Ni397   1.921       .  S
O391        C412   1.272       .  A
O392       Ni415   1.908   1_655  S
O392        C401   1.270       .  A
O393       Ni397   1.891       .  S
O393       Ni415   1.892       .  S
O393       Ni409   1.893   1_455  S
O393        H416   0.966       .  S
C394        O411   1.269       .  A
C394        O403   1.277       .  A
C394       C1270   1.483       .  S
O395       Ni414   1.933       .  S
O395        C401   1.275       .  A
O396       Ni414   1.901       .  S
O396        C398   1.270   1_655  A
Ni397       O400   1.910       .  S
Ni397       O402   1.911   1_455  S
C398        O408   1.278       .  A
C398        C856   1.483       .  S
O399       Ni415   1.943       .  S
O399        C405   1.285       .  A
O400        C405   1.278       .  A
C401        C550   1.480       .  S
O402        C404   1.267       .  A
O403       Ni414   1.941       .  S
C404        O410   1.271       .  A
C404        C512   1.481       .  S
C405        C602   1.485       .  S
H406        O407   0.966       .  S
O407       Ni415   1.935   1_655  S
O407       Ni409   1.906       .  S
O407       Ni414   1.908       .  S
O408       Ni409   1.944   1_455  S
Ni409       O413   1.904   1_655  S
Ni409       O411   1.909       .  S
O410       Ni415   1.929   1_655  S
C412        O413   1.268       .  A
C412        C532   1.472       .  S
O417       Ni423   1.935       .  S
O417        C438   1.275       .  A
O418       Ni441   1.900   1_554  S
O418        C427   1.267       .  A
O419       Ni423   1.913       .  S
O419       Ni441   1.889       .  S
O419       Ni435   1.882       .  S
O419        H442   0.967       .  S
C420        O437   1.257       .  A
C420        O429   1.273       .  A
C420        C692   1.480       .  S
O421       Ni440   1.927       .  S
O421        C427   1.273       .  A
O422       Ni440   1.885       .  S
O422        C424   1.271   1_554  A
Ni423       O426   1.914       .  S
Ni423       O428   1.926       .  S
C424        O434   1.292       .  A
C424       C1106   1.495       .  S
O425       Ni441   1.938       .  S
O425        C431   1.283       .  A
O426        C431   1.277       .  A
C427        C494   1.476       .  S
O428        C430   1.271       .  A
O429       Ni440   1.953   1_556  S
C430        O436   1.267       .  A
C430        C566   1.483       .  S
C431        C658   1.487       .  S
H432        O433   0.966       .  S
O433       Ni441   1.952       .  S
O433       Ni435   1.913       .  S
O433       Ni440   1.924   1_556  S
O434       Ni435   1.987       .  S
Ni435       O439   1.909       .  S
Ni435       O437   1.885       .  S
O436       Ni441   1.920       .  S
C438        O439   1.270       .  A
C438        C476   1.482       .  S
O443       Ni449   1.931       .  S
O443        C464   1.273       .  A
O444       Ni467   1.922       .  S
O444        C453   1.275       .  A
O445       Ni449   1.901       .  S
O445       Ni467   1.899       .  S
O445       Ni461   1.883       .  S
O445        H468   0.964       .  S
C446        O463   1.257       .  A
C446        O455   1.271       .  A
C446        C748   1.479       .  S
O447       Ni466   1.919       .  S
O447        C453   1.272       .  A
O448       Ni466   1.884       .  S
O448        C450   1.272       .  A
Ni449       O452   1.917       .  S
Ni449       O454   1.908       .  S
C450        O460   1.287       .  A
C450       C1036   1.481       .  S
O451       Ni467   1.936       .  S
O451        C457   1.283       .  A
O452        C457   1.277       .  A
C453        C478   1.479       .  S
O454        C456   1.267       .  A
O455       Ni466   1.955       .  S
C456        O462   1.273       .  A
C456        C514   1.478       .  S
C457        C586   1.487       .  S
H458        O459   0.963       .  S
O459       Ni467   1.953       .  S
O459       Ni461   1.906       .  S
O459       Ni466   1.918       .  S
O460       Ni461   1.974       .  S
Ni461       O465   1.903       .  S
Ni461       O463   1.893       .  S
O462       Ni467   1.931       .  S
C464        O465   1.266       .  A
C464        C496   1.478       .  S
C469        C477   1.491       .  S
C469        C470   1.410       .  A
C469        C474   1.402       .  A
C470        C471   1.401       .  A
C470        H479   1.082       .  S
C471        C472   1.407       .  A
C471        H480   1.081       .  S
C472        C475   1.491       .  S
C472        C473   1.406       .  A
C473        C474   1.400       .  A
C473        H481   1.083       .  S
C474        H482   1.083       .  S
C475        H483   1.087       .  S
C475        C476   1.351       .  D
C476        H484   1.084       .  S
C477        H485   1.087       .  S
C477        C478   1.345       .  D
C478        H486   1.086       .  S
C487        C495   1.486       .  S
C487        C488   1.404       .  A
C487        C492   1.407       .  A
C488        C489   1.396       .  A
C488        H497   1.084       .  S
C489        C490   1.407       .  A
C489        H498   1.080       .  S
C490        C493   1.487       .  S
C490        C491   1.404       .  A
C491        C492   1.399       .  A
C491        H499   1.083       .  S
C492        H500   1.080       .  S
C493        H501   1.087       .  S
C493        C494   1.347       .  D
C494        H502   1.084       .  S
C495        H503   1.087       .  S
C495        C496   1.348       .  D
C496        H504   1.084       .  S
C505        C513   1.488       .  S
C505        C506   1.403       .  A
C505        C510   1.407       .  A
C506        C507   1.399       .  A
C506        H515   1.084       .  S
C507        C508   1.410   1_565  A
C507        H516   1.079   1_565  S
C508        C511   1.493       .  S
C508        C509   1.406       .  A
C509        C510   1.400   1_545  A
C509        H517   1.083       .  S
C510        H518   1.082       .  S
C511        H519   1.087       .  S
C511        C512   1.349       .  D
C512        H520   1.083       .  S
C513        H521   1.087       .  S
C513        C514   1.347       .  D
C514        H522   1.085       .  S
C523        C531   1.481       .  S
C523        C524   1.404       .  A
C523        C528   1.406       .  A
C524        C525   1.394   1_455  A
C524        H533   1.084   1_455  S
C525        C526   1.405   1_655  A
C525        H534   1.082       .  S
C526        C529   1.479   1_455  S
C526        C527   1.402       .  A
C527        C528   1.396       .  A
C527        H535   1.083       .  S
C528        H536   1.080       .  S
C529        H537   1.087       .  S
C529        C530   1.343   1_655  D
C530        H538   1.086       .  S
C531        H539   1.087       .  S
C531        C532   1.348       .  D
C532        H540   1.083       .  S
C541        C549   1.488       .  S
C541        C542   1.405       .  A
C541        C546   1.407   1_655  A
C542        C543   1.398       .  A
C542        H551   1.084       .  S
C543        C544   1.407   1_655  A
C543        H552   1.081       .  S
C544        C547   1.489       .  S
C544        C545   1.405       .  A
C545        C546   1.399       .  A
C545        H553   1.083       .  S
C546        H554   1.080       .  S
C547        H555   1.087       .  S
C547        C548   1.348       .  D
C548        H556   1.084       .  S
C549        H557   1.087       .  S
C549        C550   1.350       .  D
C550        H558   1.084       .  S
C559        C567   1.496   1_556  S
C559        C560   1.402   1_556  A
C559        C564   1.411       .  A
C560        C561   1.401   1_545  A
C560        H569   1.083       .  S
C561        C562   1.411   1_554  A
C561        H570   1.081       .  S
C562        C565   1.497       .  S
C562        C563   1.405       .  A
C563        C564   1.404   1_565  A
C563        H571   1.083       .  S
C564        H572   1.082       .  S
C565        H573   1.087       .  S
C565        C566   1.348       .  D
C566        H574   1.085       .  S
C567        H575   1.087       .  S
C567        C568   1.345   1_554  D
C568        H576   1.086       .  S
C577        C585   1.489       .  S
C577        C578   1.408       .  A
C577        C582   1.404       .  A
C578        C579   1.401   1_655  A
C578        H587   1.083       .  S
C579        C580   1.405       .  A
C579        H588   1.080       .  S
C580        C583   1.492       .  S
C580        C581   1.409       .  A
C581        C582   1.400   1_455  A
C581        H589   1.083       .  S
C582        H590   1.081       .  S
C583        H591   1.087       .  S
C583        C584   1.357       .  D
C584        H592   1.083       .  S
C585        H593   1.087       .  S
C585        C586   1.356       .  D
C586        H594   1.084       .  S
C595        C603   1.486       .  S
C595        C596   1.400       .  A
C595        C600   1.409       .  A
C596        C597   1.395       .  A
C596        H605   1.084       .  S
C597        C598   1.406       .  A
C597        H606   1.084       .  S
C598        C601   1.489       .  S
C598        C599   1.407       .  A
C599        C600   1.404       .  A
C599        H607   1.081       .  S
C600        H608   1.082       .  S
C601        H609   1.088       .  S
C601        C602   1.354       .  D
C602        H610   1.084       .  S
C603        H611   1.087       .  S
C603        C604   1.345       .  D
C604        H612   1.086       .  S
C613        C621   1.482       .  S
C613        C614   1.405       .  A
C613        C618   1.407       .  A
C614        C615   1.396       .  A
C614        H623   1.083       .  S
C615        C616   1.403       .  A
C615        H624   1.082       .  S
C616        C619   1.474       .  S
C616        C617   1.401       .  A
C617        C618   1.393       .  A
C617        H625   1.084       .  S
C618        H626   1.079       .  S
C619        H627   1.087       .  S
C619        C620   1.345       .  D
C620        H628   1.086       .  S
C621        H629   1.087       .  S
C621        C622   1.347       .  D
C622        H630   1.083       .  S
C631        C639   1.483       .  S
C631        C632   1.405   1_545  A
C631        C636   1.405       .  A
C632        C633   1.397       .  A
C632        H641   1.084       .  S
C633        C634   1.406   1_565  A
C633        H642   1.080       .  S
C634        C637   1.485       .  S
C634        C635   1.405       .  A
C635        C636   1.396       .  A
C635        H643   1.084       .  S
C636        H644   1.081       .  S
C637        H645   1.087       .  S
C637        C638   1.350   1_545  D
C638        H646   1.083       .  S
C639        H647   1.087       .  S
C639        C640   1.349       .  D
C640        H648   1.084       .  S
C649        C657   1.489       .  S
C649        C650   1.408   1_655  A
C649        C654   1.404   1_556  A
C650        C651   1.399       .  A
C650        H659   1.083   1_455  S
C651        C652   1.404       .  A
C651        H660   1.081       .  S
C652        C655   1.489       .  S
C652        C653   1.408   1_556  A
C653        C654   1.400   1_455  A
C653        H661   1.083       .  S
C654        H662   1.081       .  S
C655        H663   1.087   1_556  S
C655        C656   1.356       .  D
C656        H664   1.084       .  S
C657        H665   1.087       .  S
C657        C658   1.355       .  D
C658        H666   1.084   1_556  S
C667        C675   1.489       .  S
C667        C668   1.412   1_554  A
C667        C672   1.399       .  A
C668        C669   1.406       .  A
C668        H677   1.081       .  S
C669        C670   1.407       .  A
C669        H678   1.081       .  S
C670        C673   1.488       .  S
C670        C671   1.405   1_556  A
C671        C672   1.393       .  A
C671        H679   1.084       .  S
C672        H680   1.084       .  S
C673        H681   1.088   1_556  S
C673        C674   1.352       .  D
C674        H682   1.084       .  S
C675        H683   1.087       .  S
C675        C676   1.343   1_554  D
C676        H684   1.085       .  S
C685        C693   1.498       .  S
C685        C686   1.402       .  A
C685        C690   1.413       .  A
C686        C687   1.400       .  A
C686        H695   1.083       .  S
C687        C688   1.411       .  A
C687        H696   1.081       .  S
C688        C691   1.496       .  S
C688        C689   1.403       .  A
C689        C690   1.403       .  A
C689        H697   1.083       .  S
C690        H698   1.081       .  S
C691        H699   1.087       .  S
C691        C692   1.345       .  D
C692        H700   1.085       .  S
C693        H701   1.087       .  S
C693        C694   1.344       .  D
C694        H702   1.085       .  S
C703        C711   1.491       .  S
C703        C704   1.400       .  A
C703        C708   1.409       .  A
C704        C705   1.400       .  A
C704        H713   1.083       .  S
C705        C706   1.413       .  A
C705        H714   1.080       .  S
C706        C709   1.499       .  S
C706        C707   1.404       .  A
C707        C708   1.402       .  A
C707        H715   1.083       .  S
C708        H716   1.082       .  S
C709        H717   1.087       .  S
C709        C710   1.344       .  D
C710        H718   1.084       .  S
C711        H719   1.087       .  S
C711        C712   1.343       .  D
C712        H720   1.086       .  S
C721        C729   1.490   1_554  S
C721        C722   1.403       .  A
C721        C726   1.409       .  A
C722        C723   1.398       .  A
C722        H731   1.083       .  S
C723        C724   1.407       .  A
C723        H732   1.081       .  S
C724        C727   1.488       .  S
C724        C725   1.403       .  A
C725        C726   1.399       .  A
C725        H733   1.083       .  S
C726        H734   1.081       .  S
C727        H735   1.087       .  S
C727        C728   1.347       .  D
C728        H736   1.085       .  S
C729        H737   1.087       .  S
C729        C730   1.346       .  D
C730        H738   1.084       .  S
C739        C747   1.494       .  S
C739        C740   1.403       .  A
C739        C744   1.411       .  A
C740        C741   1.401       .  A
C740        H749   1.083       .  S
C741        C742   1.410       .  A
C741        H750   1.082       .  S
C742        C745   1.492       .  S
C742        C743   1.402       .  A
C743        C744   1.400       .  A
C743        H751   1.083       .  S
C744        H752   1.081       .  S
C745        H753   1.087       .  S
C745        C746   1.345       .  D
C746        H754   1.086       .  S
C747        H755   1.087       .  S
C747        C748   1.346       .  D
C748        H756   1.085       .  S
C757        C765   1.491       .  S
C757        C758   1.406       .  A
C757        C762   1.408       .  A
C758        C759   1.395       .  A
C758        H767   1.084       .  S
C759        C760   1.399       .  A
C759        H768   1.084       .  S
C760        C763   1.490       .  S
C760        C761   1.412       .  A
C761        C762   1.408       .  A
C761        H769   1.082       .  S
C762        H770   1.081       .  S
C763        H771   1.087       .  S
C763        C764   1.344       .  D
C764        H772   1.086       .  S
C765        H773   1.088       .  S
C765        C766   1.355       .  D
C766        H774   1.084       .  S
C775        C783   1.496       .  S
C775        C776   1.409       .  A
C775        C780   1.406       .  A
C776        C777   1.406       .  A
C776        H785   1.083       .  S
C777        C778   1.406       .  A
C777        H786   1.082       .  S
C778        C781   1.490       .  S
C778        C779   1.406       .  A
C779        C780   1.400       .  A
C779        H787   1.083       .  S
C780        H788   1.081       .  S
C781        H789   1.088       .  S
C781        C782   1.355       .  D
C782        H790   1.085   1_556  S
C783        H791   1.087       .  S
C783        C784   1.354       .  D
C784        H792   1.084       .  S
C793        C801   1.488       .  S
C793        C794   1.404       .  A
C793        C798   1.408       .  A
C794        C795   1.396       .  A
C794        H803   1.084       .  S
C795        C796   1.407       .  A
C795        H804   1.080       .  S
C796        C799   1.489       .  S
C796        C797   1.405       .  A
C797        C798   1.399       .  A
C797        H805   1.084       .  S
C798        H806   1.080       .  S
C799        H807   1.087       .  S
C799        C800   1.349       .  D
C800        H808   1.083       .  S
C801        H809   1.087       .  S
C801        C802   1.348       .  D
C802        H810   1.083       .  S
C811        C819   1.491       .  S
C811        C812   1.399       .  A
C811        C816   1.413       .  A
C812        C813   1.395       .  A
C812        H821   1.083       .  S
C813        C814   1.406       .  A
C813        H822   1.083       .  S
C814        C817   1.489   1_554  S
C814        C815   1.407       .  A
C815        C816   1.403       .  A
C815        H823   1.081       .  S
C816        H824   1.081       .  S
C817        H825   1.087       .  S
C817        C818   1.352       .  D
C818        H826   1.084       .  S
C819        H827   1.087       .  S
C819        C820   1.342       .  D
C820        H828   1.085       .  S
C829        C837   1.487       .  S
C829        C830   1.400       .  A
C829        C834   1.410       .  A
C830        C831   1.396       .  A
C830        H839   1.084       .  S
C831        C832   1.406       .  A
C831        H840   1.084       .  S
C832        C835   1.489       .  S
C832        C833   1.407       .  A
C833        C834   1.404       .  A
C833        H841   1.081       .  S
C834        H842   1.082       .  S
C835        H843   1.088       .  S
C835        C836   1.353       .  D
C836        H844   1.084       .  S
C837        H845   1.087       .  S
C837        C838   1.343       .  D
C838        H846   1.086       .  S
C847        C855   1.484       .  S
C847        C848   1.403       .  A
C847        C852   1.408       .  A
C848        C849   1.395       .  A
C848        H857   1.084       .  S
C849        C850   1.404       .  A
C849        H858   1.083       .  S
C850        C853   1.483       .  S
C850        C851   1.403       .  A
C851        C852   1.404       .  A
C851        H859   1.083       .  S
C852        H860   1.082       .  S
C853        H861   1.086       .  S
C853        C854   1.343       .  D
C854        H862   1.088       .  S
C855        H863   1.088       .  S
C855        C856   1.350       .  D
C856        H864   1.085       .  S
C865        C873   1.493       .  S
C865        C866   1.400       .  A
C865        C870   1.413       .  A
C866        C867   1.396       .  A
C866        H875   1.083       .  S
C867        C868   1.406       .  A
C867        H876   1.083       .  S
C868        C871   1.490       .  S
C868        C869   1.406       .  A
C869        C870   1.405       .  A
C869        H877   1.081       .  S
C870        H878   1.081       .  S
C871        H879   1.088       .  S
C871        C872   1.354       .  D
C872        H880   1.084       .  S
C873        H881   1.087       .  S
C873        C874   1.343       .  D
C874        H882   1.085       .  S
C883        C891   1.489       .  S
C883        C884   1.408       .  A
C883        C888   1.404       .  A
C884        C885   1.407       .  A
C884        H893   1.082       .  S
C885        C886   1.412       .  A
C885        H894   1.082       .  S
C886        C889   1.489       .  S
C886        C887   1.400       .  A
C887        C888   1.394       .  A
C887        H895   1.084       .  S
C888        H896   1.084       .  S
C889        H897   1.087       .  S
C889        C890   1.345       .  D
C890        H898   1.085       .  S
C891        H899   1.088       .  S
C891        C892   1.352       .  D
C892        H900   1.085       .  S
C901        C909   1.493       .  S
C901        C902   1.399       .  A
C901        C906   1.413       .  A
C902        C903   1.395       .  A
C902        H911   1.084       .  S
C903        C904   1.406       .  A
C903        H912   1.084       .  S
C904        C907   1.491       .  S
C904        C905   1.408       .  A
C905        C906   1.410       .  A
C905        H913   1.082       .  S
C906        H914   1.082       .  S
C907        H915   1.089       .  S
C907        C908   1.354       .  D
C908        H916   1.084       .  S
C909        H917   1.087       .  S
C909        C910   1.345       .  D
C910        H918   1.086       .  S
C919        C927   1.490       .  S
C919        C920   1.401       .  A
C919        C924   1.410       .  A
C920        C921   1.399       .  A
C920        H929   1.083       .  S
C921        C922   1.410       .  A
C921        H930   1.082       .  S
C922        C925   1.491       .  S
C922        C923   1.403       .  A
C923        C924   1.401       .  A
C923        H931   1.083       .  S
C924        H932   1.082       .  S
C925        H933   1.087       .  S
C925        C926   1.343       .  D
C926        H934   1.086       .  S
C927        H935   1.087       .  S
C927        C928   1.342       .  D
C928        H936   1.086       .  S
C937        C945   1.484   1_554  S
C937        C938   1.400       .  A
C937        C942   1.407       .  A
C938        C939   1.395       .  A
C938        H947   1.084       .  S
C939        C940   1.410       .  A
C939        H948   1.078       .  S
C940        C943   1.490       .  S
C940        C941   1.405       .  A
C941        C942   1.398       .  A
C941        H949   1.084       .  S
C942        H950   1.081       .  S
C943        H951   1.087       .  S
C943        C944   1.347       .  D
C944        H952   1.082       .  S
C945        H953   1.087       .  S
C945        C946   1.343       .  D
C946        H954   1.085       .  S
C955        C963   1.489       .  S
C955        C956   1.406       .  A
C955        C960   1.404       .  A
C956        C957   1.406       .  A
C956        H965   1.083       .  S
C957        C958   1.409       .  A
C957        H966   1.082       .  S
C958        C961   1.490       .  S
C958        C959   1.405       .  A
C959        C960   1.396       .  A
C959        H967   1.084       .  S
C960        H968   1.083       .  S
C961        H969   1.088       .  S
C961        C962   1.352       .  D
C962        H970   1.085       .  S
C963        H971   1.087       .  S
C963        C964   1.349       .  D
C964        H972   1.087       .  S
C973        C981   1.484       .  S
C973        C974   1.403       .  A
C973        C978   1.408       .  A
C974        C975   1.393       .  A
C974        H983   1.084       .  S
C975        C976   1.401       .  A
C975        H984   1.084       .  S
C976        C979   1.488       .  S
C976        C977   1.411       .  A
C977        C978   1.406       .  A
C977        H985   1.081       .  S
C978        H986   1.082       .  S
C979        H987   1.088       .  S
C979        C980   1.343       .  D
C980        H988   1.085       .  S
C981        H989   1.089       .  S
C981        C982   1.350       .  D
C982        H990   1.085       .  S
C991        C999   1.484       .  S
C991        C992   1.402       .  A
C991        C996   1.407       .  A
C992        C993   1.399       .  A
C992       H1001   1.083       .  S
C993        C994   1.407       .  A
C993       H1002   1.083       .  S
C994        C997   1.484       .  S
C994        C995   1.404       .  A
C995        C996   1.402       .  A
C995       H1003   1.083       .  S
C996       H1004   1.083       .  S
C997       H1005   1.087       .  S
C997        C998   1.349       .  D
C998       H1006   1.086       .  S
C999       H1007   1.087       .  S
C999       C1000   1.342       .  D
C1000      H1008   1.087       .  S
C1009      C1017   1.490       .  S
C1009      C1010   1.407       .  A
C1009      C1014   1.404       .  A
C1010      C1011   1.400       .  A
C1010      H1019   1.084       .  S
C1011      C1012   1.405       .  A
C1011      H1020   1.081       .  S
C1012      C1015   1.493       .  S
C1012      C1013   1.409       .  A
C1013      C1014   1.403       .  A
C1013      H1021   1.083       .  S
C1014      H1022   1.082       .  S
C1015      H1023   1.087       .  S
C1015      C1016   1.355       .  D
C1016      H1024   1.084       .  S
C1017      H1025   1.088       .  S
C1017      C1018   1.356       .  D
C1018      H1026   1.085       .  S
C1027      C1035   1.485       .  S
C1027      C1028   1.405       .  A
C1027      C1032   1.404       .  A
C1028      C1029   1.401       .  A
C1028      H1037   1.082       .  S
C1029      C1030   1.413       .  A
C1029      H1038   1.080       .  S
C1030      C1033   1.493       .  S
C1030      C1031   1.402       .  A
C1031      C1032   1.397       .  A
C1031      H1039   1.083       .  S
C1032      H1040   1.084       .  S
C1033      H1041   1.087       .  S
C1033      C1034   1.343       .  D
C1034      H1042   1.083       .  S
C1035      H1043   1.088       .  S
C1035      C1036   1.351       .  D
C1036      H1044   1.085       .  S
C1045      C1053   1.481       .  S
C1045      C1046   1.404       .  A
C1045      C1050   1.405       .  A
C1046      C1047   1.399       .  A
C1046      H1055   1.083       .  S
C1047      C1048   1.407       .  A
C1047      H1056   1.081       .  S
C1048      C1051   1.481       .  S
C1048      C1049   1.403       .  A
C1049      C1050   1.393       .  A
C1049      H1057   1.084       .  S
C1050      H1058   1.082       .  S
C1051      H1059   1.087       .  S
C1051      C1052   1.347   1_556  D
C1052      H1060   1.084       .  S
C1053      H1061   1.087       .  S
C1053      C1054   1.346       .  D
C1054      H1062   1.085       .  S
C1063      C1071   1.485       .  S
C1063      C1064   1.405       .  A
C1063      C1068   1.407       .  A
C1064      C1065   1.398       .  A
C1064      H1073   1.083       .  S
C1065      C1066   1.406       .  A
C1065      H1074   1.081       .  S
C1066      C1069   1.482       .  S
C1066      C1067   1.402       .  A
C1067      C1068   1.395       .  A
C1067      H1075   1.084       .  S
C1068      H1076   1.080       .  S
C1069      H1077   1.087       .  S
C1069      C1070   1.346       .  D
C1070      H1078   1.085       .  S
C1071      H1079   1.087       .  S
C1071      C1072   1.346       .  D
C1072      H1080   1.084       .  S
C1081      C1089   1.496       .  S
C1081      C1082   1.405       .  A
C1081      C1086   1.410       .  A
C1082      C1083   1.402       .  A
C1082      H1091   1.081       .  S
C1083      C1084   1.409       .  A
C1083      H1092   1.083       .  S
C1084      C1087   1.497       .  S
C1084      C1085   1.405       .  A
C1085      C1086   1.403       .  A
C1085      H1093   1.081       .  S
C1086      H1094   1.083       .  S
C1087      H1095   1.087       .  S
C1087      C1088   1.358       .  D
C1088      H1096   1.084       .  S
C1089      H1097   1.087       .  S
C1089      C1090   1.360       .  D
C1090      H1098   1.084       .  S
C1099      C1107   1.501       .  S
C1099      C1100   1.410       .  A
C1099      C1104   1.407       .  A
C1100      C1101   1.409       .  A
C1100      H1109   1.083       .  S
C1101      C1102   1.406       .  A
C1101      H1110   1.082   1_554  S
C1102      C1105   1.495       .  S
C1102      C1103   1.407       .  A
C1103      C1104   1.400       .  A
C1103      H1111   1.084       .  S
C1104      H1112   1.081       .  S
C1105      H1113   1.088       .  S
C1105      C1106   1.358   1_554  D
C1106      H1114   1.085       .  S
C1107      H1115   1.087       .  S
C1107      C1108   1.356       .  D
C1108      H1116   1.084       .  S
C1117      C1125   1.484       .  S
C1117      C1118   1.408       .  A
C1117      C1122   1.404       .  A
C1118      C1119   1.405       .  A
C1118      H1127   1.081       .  S
C1119      C1120   1.410       .  A
C1119      H1128   1.082       .  S
C1120      C1123   1.483       .  S
C1120      C1121   1.399       .  A
C1121      C1122   1.391       .  A
C1121      H1129   1.084       .  S
C1122      H1130   1.084       .  S
C1123      H1131   1.087       .  S
C1123      C1124   1.342       .  D
C1124      H1132   1.086       .  S
C1125      H1133   1.089       .  S
C1125      C1126   1.349       .  D
C1126      H1134   1.084       .  S
C1135      C1143   1.486       .  S
C1135      C1136   1.405       .  A
C1135      C1140   1.406       .  A
C1136      C1137   1.397   1_565  A
C1136      H1145   1.084       .  S
C1137      C1138   1.405       .  A
C1137      H1146   1.080       .  S
C1138      C1141   1.488       .  S
C1138      C1139   1.407       .  A
C1139      C1140   1.399   1_545  A
C1139      H1147   1.084       .  S
C1140      H1148   1.080       .  S
C1141      H1149   1.087       .  S
C1141      C1142   1.352       .  D
C1142      H1150   1.083       .  S
C1143      H1151   1.088       .  S
C1143      C1144   1.350       .  D
C1144      H1152   1.084       .  S
C1153      C1161   1.494       .  S
C1153      C1154   1.404       .  A
C1153      C1158   1.407       .  A
C1154      C1155   1.401       .  A
C1154      H1163   1.084       .  S
C1155      C1156   1.410       .  A
C1155      H1164   1.079       .  S
C1156      C1159   1.499       .  S
C1156      C1157   1.407       .  A
C1157      C1158   1.403       .  A
C1157      H1165   1.083       .  S
C1158      H1166   1.082       .  S
C1159      H1167   1.087       .  S
C1159      C1160   1.352       .  D
C1160      H1168   1.082       .  S
C1161      H1169   1.087       .  S
C1161      C1162   1.349       .  D
C1162      H1170   1.085       .  S
C1171      C1179   1.483   1_556  S
C1171      C1172   1.401       .  A
C1171      C1176   1.407       .  A
C1172      C1173   1.395       .  A
C1172      H1181   1.084       .  S
C1173      C1174   1.409       .  A
C1173      H1182   1.079       .  S
C1174      C1177   1.490       .  S
C1174      C1175   1.406       .  A
C1175      C1176   1.400       .  A
C1175      H1183   1.083       .  S
C1176      H1184   1.082       .  S
C1177      H1185   1.087       .  S
C1177      C1178   1.348       .  D
C1178      H1186   1.082       .  S
C1179      H1187   1.087       .  S
C1179      C1180   1.344       .  D
C1180      H1188   1.085       .  S
C1189      C1197   1.483       .  S
C1189      C1190   1.408       .  A
C1189      C1194   1.400       .  A
C1190      C1191   1.397       .  A
C1190      H1199   1.083       .  S
C1191      C1192   1.405       .  A
C1191      H1200   1.081       .  S
C1192      C1195   1.484       .  S
C1192      C1193   1.406       .  A
C1193      C1194   1.398       .  A
C1193      H1201   1.083       .  S
C1194      H1202   1.083       .  S
C1195      H1203   1.087       .  S
C1195      C1196   1.351       .  D
C1196      H1204   1.084       .  S
C1197      H1205   1.087       .  S
C1197      C1198   1.341       .  D
C1198      H1206   1.087       .  S
C1207      C1215   1.490       .  S
C1207      C1208   1.400       .  A
C1207      C1212   1.411       .  A
C1208      C1209   1.395       .  A
C1208      H1217   1.084       .  S
C1209      C1210   1.406       .  A
C1209      H1218   1.084       .  S
C1210      C1213   1.491       .  S
C1210      C1211   1.408       .  A
C1211      C1212   1.408       .  A
C1211      H1219   1.081       .  S
C1212      H1220   1.082       .  S
C1213      H1221   1.087       .  S
C1213      C1214   1.354       .  D
C1214      H1222   1.084       .  S
C1215      H1223   1.087       .  S
C1215      C1216   1.345       .  D
C1216      H1224   1.086       .  S
C1225      C1233   1.491       .  S
C1225      C1226   1.408       .  A
C1225      C1230   1.406       .  A
C1226      C1227   1.401   1_565  A
C1226      H1235   1.084       .  S
C1227      C1228   1.406       .  A
C1227      H1236   1.081       .  S
C1228      C1231   1.490       .  S
C1228      C1229   1.406       .  A
C1229      C1230   1.399   1_545  A
C1229      H1237   1.083       .  S
C1230      H1238   1.080       .  S
C1231      H1239   1.087       .  S
C1231      C1232   1.352       .  D
C1232      H1240   1.084       .  S
C1233      H1241   1.087       .  S
C1233      C1234   1.354       .  D
C1234      H1242   1.084       .  S
C1243      C1251   1.491       .  S
C1243      C1244   1.406       .  A
C1243      C1248   1.407       .  A
C1244      C1245   1.399       .  A
C1244      H1253   1.084       .  S
C1245      C1246   1.408       .  A
C1245      H1254   1.080       .  S
C1246      C1249   1.491       .  S
C1246      C1247   1.404       .  A
C1247      C1248   1.399       .  A
C1247      H1255   1.083       .  S
C1248      H1256   1.080       .  S
C1249      H1257   1.087       .  S
C1249      C1250   1.349       .  D
C1250      H1258   1.084   1_554  S
C1251      H1259   1.087       .  S
C1251      C1252   1.351       .  D
C1252      H1260   1.083       .  S
C1261      C1269   1.499       .  S
C1261      C1262   1.404       .  A
C1261      C1266   1.410       .  A
C1262      C1263   1.403       .  A
C1262      H1271   1.083       .  S
C1263      C1264   1.413       .  A
C1263      H1272   1.079       .  S
C1264      C1267   1.502       .  S
C1264      C1265   1.404       .  A
C1265      C1266   1.401       .  A
C1265      H1273   1.083       .  S
C1266      H1274   1.081       .  S
C1267      H1275   1.087       .  S
C1267      C1268   1.348       .  D
C1268      H1276   1.083       .  S
C1269      H1277   1.087       .  S
C1269      C1270   1.348       .  D
C1270      H1278   1.084       .  S
C1279      C1287   1.491       .  S
C1279      C1280   1.407       .  A
C1279      C1284   1.407       .  A
C1280      C1281   1.397       .  A
C1280      H1289   1.084       .  S
C1281      C1282   1.404       .  A
C1281      H1290   1.082       .  S
C1282      C1285   1.493       .  S
C1282      C1283   1.408       .  A
C1283      C1284   1.406       .  A
C1283      H1291   1.083       .  S
C1284      H1292   1.081       .  S
C1285      H1293   1.087       .  S
C1285      C1286   1.352       .  D
C1286      H1294   1.085       .  S
C1287      H1295   1.088       .  S
C1287      C1288   1.355       .  D
C1288      H1296   1.085       .  S
C1297      C1305   1.485       .  S
C1297      C1298   1.404       .  A
C1297      C1302   1.407       .  A
C1298      C1299   1.395       .  A
C1298      H1307   1.084       .  S
C1299      C1300   1.405       .  A
C1299      H1308   1.082       .  S
C1300      C1303   1.489       .  S
C1300      C1301   1.406       .  A
C1301      C1302   1.403       .  A
C1301      H1309   1.083       .  S
C1302      H1310   1.081       .  S
C1303      H1311   1.087       .  S
C1303      C1304   1.349       .  D
C1304      H1312   1.085       .  S
C1305      H1313   1.088       .  S
C1305      C1306   1.351       .  D
C1306      H1314   1.085       .  S
C1315      C1323   1.495       .  S
C1315      C1316   1.409       .  A
C1315      C1320   1.405       .  A
C1316      C1317   1.404   1_455  A
C1316      H1325   1.083       .  S
C1317      C1318   1.406       .  A
C1317      H1326   1.081       .  S
C1318      C1321   1.497       .  S
C1318      C1319   1.409       .  A
C1319      C1320   1.403   1_655  A
C1319      H1327   1.083       .  S
C1320      H1328   1.082       .  S
C1321      H1329   1.087       .  S
C1321      C1322   1.356       .  D
C1322      H1330   1.084       .  S
C1323      H1331   1.087       .  S
C1323      C1324   1.358       .  D
C1324      H1332   1.085       .  S
C1333      C1341   1.485       .  S
C1333      C1334   1.404       .  A
C1333      C1338   1.407       .  A
C1334      C1335   1.396       .  A
C1334      H1343   1.084       .  S
C1335      C1336   1.407       .  A
C1335      H1344   1.080       .  S
C1336      C1339   1.485       .  S
C1336      C1337   1.404       .  A
C1337      C1338   1.397       .  A
C1337      H1345   1.083       .  S
C1338      H1346   1.079       .  S
C1339      H1347   1.087       .  S
C1339      C1340   1.347       .  D
C1340      H1348   1.084       .  S
C1341      H1349   1.087   1_556  S
C1341      C1342   1.349   1_556  D
C1342      H1350   1.083       .  S
C1351      C1359   1.492       .  S
C1351      C1352   1.408       .  A
C1351      C1356   1.407       .  A
C1352      C1353   1.402       .  A
C1352      H1361   1.083       .  S
C1353      C1354   1.407       .  A
C1353      H1362   1.080       .  S
C1354      C1357   1.487       .  S
C1354      C1355   1.403       .  A
C1355      C1356   1.394       .  A
C1355      H1363   1.084       .  S
C1356      H1364   1.078       .  S
C1357      H1365   1.087       .  S
C1357      C1358   1.350       .  D
C1358      H1366   1.083       .  S
C1359      H1367   1.087       .  S
C1359      C1360   1.352       .  D
C1360      H1368   1.081       .  S
C1369      C1377   1.492       .  S
C1369      C1370   1.402       .  A
C1369      C1374   1.409       .  A
C1370      C1371   1.402       .  A
C1370      H1379   1.083       .  S
C1371      C1372   1.413       .  A
C1371      H1380   1.080       .  S
C1372      C1375   1.497       .  S
C1372      C1373   1.403       .  A
C1373      C1374   1.399       .  A
C1373      H1381   1.083       .  S
C1374      H1382   1.082       .  S
C1375      H1383   1.087       .  S
C1375      C1376   1.345       .  D
C1376      H1384   1.083       .  S
C1377      H1385   1.087       .  S
C1377      C1378   1.345       .  D
C1378      H1386   1.086       .  S
C1387      C1395   1.493       .  S
C1387      C1388   1.408       .  A
C1387      C1392   1.405       .  A
C1388      C1389   1.405       .  A
C1388      H1397   1.083       .  S
C1389      C1390   1.406       .  A
C1389      H1398   1.081       .  S
C1390      C1393   1.491       .  S
C1390      C1391   1.407       .  A
C1391      C1392   1.398       .  A
C1391      H1399   1.084       .  S
C1392      H1400   1.082       .  S
C1393      H1401   1.088       .  S
C1393      C1394   1.355       .  D
C1394      H1402   1.085       .  S
C1395      H1403   1.087       .  S
C1395      C1396   1.351       .  D
C1396      H1404   1.085       .  S
C1405      C1413   1.489       .  S
C1405      C1406   1.405       .  A
C1405      C1410   1.408       .  A
C1406      C1407   1.397       .  A
C1406      H1415   1.084       .  S
C1407      C1408   1.406       .  A
C1407      H1416   1.082       .  S
C1408      C1411   1.490       .  S
C1408      C1409   1.405       .  A
C1409      C1410   1.403       .  A
C1409      H1417   1.083       .  S
C1410      H1418   1.081       .  S
C1411      H1419   1.087       .  S
C1411      C1412   1.348       .  D
C1412      H1420   1.086       .  S
C1413      H1421   1.088       .  S
C1413      C1414   1.352       .  D
C1414      H1422   1.085       .  S
C1423      C1431   1.486       .  S
C1423      C1424   1.405       .  A
C1423      C1428   1.406       .  A
C1424      C1425   1.399   1_655  A
C1424      H1433   1.081       .  S
C1425      C1426   1.406       .  A
C1425      H1434   1.084       .  S
C1426      C1429   1.486       .  S
C1426      C1427   1.404       .  A
C1427      C1428   1.399   1_455  A
C1427      H1435   1.081       .  S
C1428      H1436   1.084       .  S
C1429      H1437   1.088       .  S
C1429      C1430   1.351       .  D
C1430      H1438   1.084       .  S
C1431      H1439   1.088       .  S
C1431      C1432   1.351       .  D
C1432      H1440   1.085       .  S
