geometry optimzed in LAMMPS
_audit_creation_date              2020-12-01 
_audit_creation_method            'lammps2cif' 
_symmetry_space_group_name_H-M    'P1' 
_symmetry_Int_Tables_number       1 
_symmetry_cell_setting            triclinic 
loop_ 
_symmetry_equiv_pos_as_xyz 
  x,y,z 
_cell_length_a                    44.36595548 
_cell_length_b                    43.496383734333136 
_cell_length_c                    107.24210234625438 
_cell_angle_alpha                 89.76368995784195 
_cell_angle_beta                  89.85425404446299 
_cell_angle_gamma                 119.79193487535751 
loop_ 
_atom_site_label 
_atom_site_type_symbol 
_atom_site_fract_x 
_atom_site_fract_y 
_atom_site_fract_z 
_atom_site_charge 
O1          O  0.20312018  0.35403635  0.35325588    -0.77400
C2          C  0.11954705  0.25075921  0.35876452     0.83600
O3          O  0.12277968  0.37924921  0.37273227    -0.78500
O4          O  0.09300742  0.27331695  0.39528058    -0.80000
O5          O  0.21882415  0.31764247  0.39532231    -0.79800
O6          O  0.24398854  0.36667368  0.36747538    -0.78400
Zn7        Zn  0.15719328  0.33044182  0.36140369     1.55700
O8          O  0.16557979  0.27025981  0.39622328    -0.79800
Cd9        Cd  0.21218660  0.35249804  0.38359513     1.59700
Cd10       Cd  0.14079182  0.35908520  0.38674503     1.59600
O11         O  0.22704568  0.39833347  0.39367032    -0.79800
O12         O  0.16165796  0.33140811  0.37916838    -1.90300
Cd13       Cd  0.13522055  0.28139643  0.38492546     1.59900
O14         O  0.17889115  0.40180843  0.39671657    -0.79800
O15         O  0.11828584  0.24531161  0.37046046    -0.78400
C16         C  0.12109444  0.37395415  0.36100871     0.84100
C17         C  0.23467880  0.36615835  0.35616542     0.83700
O18         O  0.13278460  0.28186948  0.35427025    -0.77400
C19         C  0.19730467  0.28665127  0.39943154     0.84600
O20         O  0.13266823  0.35543245  0.35601723    -0.77500
C21         C  0.21143953  0.41376035  0.39819350     0.84700
C22         C  0.08206792  0.29291149  0.39987656     0.85000
O23         O  0.09772992  0.32641087  0.39804425    -0.79900
O24         O  0.03633840  0.05375005  0.28668392    -0.77400
C25         C  0.43343491  0.47423423  0.28981317     0.83600
O26         O  0.03514295  0.44726354  0.27066572    -0.78500
O27         O  0.42743164  0.43468988  0.25118076    -0.80000
O28         O  0.49306596  0.06011080  0.24696984    -0.79800
O29         O  0.05210241  0.08668706  0.26947054    -0.78400
Zn30       Zn  0.50854174  0.50744854  0.28149726     1.55700
O31         O  0.43941960  0.01610330  0.25137811    -0.79800
Cd32       Cd  0.02652997  0.04708716  0.25615374     1.59700
Cd33       Cd  0.01606898  0.46711007  0.25691749     1.59600
O34         O  0.06266946  0.04750838  0.24351048    -0.79800
O35         O  0.49855002  0.50134379  0.26405616    -1.90300
Cd36       Cd  0.44711907  0.48122717  0.26154857     1.59900
O37         O  0.05323965  0.99209334  0.24444374    -0.79800
O38         O  0.42071590  0.46907597  0.27883065    -0.78400
C39         C  0.04057835  0.45578295  0.28212588     0.84100
C40         C  0.05211905  0.08377203  0.28130294     0.83700
O41         O  0.46585089  0.48885683  0.29161682    -0.77400
C42         C  0.46014729  0.04586810  0.24621657     0.84600
O43         O  0.03255906  0.47745276  0.28684782    -0.77500
C44         C  0.06958962  0.02355664  0.24008744     0.84700
C45         C  0.44110613  0.41716600  0.24679690     0.85000
O46         O  0.47297038  0.42657621  0.24852910    -0.79900
C47         C  0.17045607  0.33538907  0.80726058     0.46500
H48         H  0.16954058  0.33451568  0.81761942    -0.02500
C49         C  0.17267280  0.33755401  0.78308661     0.46600
H50         H  0.17435593  0.33840784  0.77274576    -0.02500
C51         C  0.15445285  0.35669936  0.80148739    -0.16200
C52         C  0.20781629  0.35257282  0.80185450    -0.15900
C53         C  0.15061174  0.29839798  0.80117826    -0.16300
C54         C  0.15582537  0.35778969  0.78864769    -0.16300
C55         C  0.20834765  0.35346129  0.78903092    -0.15900
C56         C  0.15213462  0.30000717  0.78833876    -0.16200
C57         C  0.50107987  0.99996068  0.83027355     0.46500
H58         H  0.50200584  0.00155832  0.81992046    -0.02500
C59         C  0.49872774  0.99583949  0.85443434     0.46600
H60         H  0.49716370  0.99410562  0.86476889    -0.02500
C61         C  0.02062649  0.03659862  0.83656881    -0.16200
C62         C  0.46434466  0.48273800  0.83698575    -0.15900
C63         C  0.01694227  0.47807022  0.83753386    -0.16300
C64         C  0.01920349  0.03441990  0.84942025    -0.16300
C65         C  0.46360803  0.48077210  0.84982036    -0.15900
C66         C  0.01504481  0.47590998  0.85035385    -0.16200
C67         C  0.16157036  0.32986178  0.50004668     0.46500
H68         H  0.16419100  0.33161086  0.48972124    -0.02500
C69         C  0.15516141  0.32567819  0.52416331     0.46600
H70         H  0.15310365  0.32390712  0.53449885    -0.02500
C71         C  0.17901200  0.31059966  0.50619240    -0.16200
C72         C  0.17811490  0.36631519  0.50647027    -0.15900
C73         C  0.12340079  0.31000712  0.50466025    -0.16300
C74         C  0.17532975  0.30846441  0.51897753    -0.16300
C75         C  0.17452862  0.36371793  0.51926141    -0.15900
C76         C  0.12036138  0.30791906  0.51743853    -0.16200
C77         C  0.33039328  0.16636171  0.47653312     0.46500
H78         H  0.32930459  0.16569600  0.48689350    -0.02500
C79         C  0.33298870  0.16802302  0.45229658     0.46600
H80         H  0.33353061  0.16887881  0.44194921    -0.02500
C81         C  0.31307133  0.18605825  0.47064921    -0.16200
C82         C  0.36773607  0.18492494  0.47121667    -0.15900
C83         C  0.31200996  0.12941811  0.47061246    -0.16300
C84         C  0.31498410  0.18726271  0.45779537    -0.16300
C85         C  0.36895265  0.18622900  0.45838996    -0.15900
C86         C  0.31298884  0.13022048  0.45778319    -0.16200
O87         O  0.39093373  0.19808883  0.57606608    -0.77400
C88         C  0.30141565  0.09311665  0.57316783     0.83600
O89         O  0.29128437  0.21093074  0.58540833    -0.78500
O90         O  0.25374000  0.10258714  0.60828088    -0.80000
O91         O  0.37266769  0.14773294  0.61825616    -0.79800
O92         O  0.41605680  0.20623404  0.59461836    -0.78400
Zn93       Zn  0.33961570  0.17193783  0.57893272     1.55700
O94         O  0.32406443  0.09815816  0.61334710    -0.79800
Cd95       Cd  0.37277643  0.18544349  0.60633449     1.59700
Cd96       Cd  0.30235059  0.19031201  0.60121429     1.59600
O97         O  0.37727401  0.22597532  0.61739582    -0.79800
O98         O  0.32883211  0.16564499  0.59653254    -1.90300
Cd99       Cd  0.30031467  0.11392620  0.60023779     1.59900
O100        O  0.33148136  0.23236597  0.61307713    -0.79800
O101        O  0.29131924  0.08382843  0.58438370    -0.78400
C102        C  0.30136221  0.21264254  0.57413248     0.84100
C103        C  0.41799151  0.20959938  0.58278212     0.81900
O104        O  0.31986599  0.12547851  0.57001127    -0.77400
C105        C  0.35154280  0.11472634  0.61980374     0.84600
O106        O  0.31989187  0.19933036  0.57077011    -0.77500
C107        C  0.35974277  0.24166346  0.61886825     0.84700
C108        C  0.24174777  0.12166042  0.61253048     0.85000
O109        O  0.25704508  0.15516388  0.61078094    -0.79900
O110        O  0.02414135  0.04549498  0.73760337    -0.77400
C111        C  0.42785608  0.44814762  0.73446092     0.83600
O112        O  0.05124883  0.46300043  0.71768722    -0.78500
O113        O  0.44190323  0.42940720  0.69630600    -0.80000
O114        O  0.48808111  0.06128587  0.69710557    -0.79800
O115        O  0.03653078  0.08482175  0.72236001    -0.78400
Zn116      Zn  0.00442235  0.99820820  0.72949185     1.55700
O117        O  0.43877633  0.00938910  0.69609918    -0.79800
Cd118      Cd  0.02169329  0.05179427  0.70694433     1.59700
Cd119      Cd  0.02680192  0.47836147  0.70424044     1.59600
O120        O  0.06311021  0.06644659  0.69491023    -0.79800
O121        O  0.00077003  0.00078793  0.71169083    -1.90300
Cd122      Cd  0.45079995  0.47154481  0.70746351     1.59900
O123        O  0.06360999  0.01620033  0.69113091    -0.79800
O124        O  0.41930853  0.45010762  0.72324354    -0.78400
C125        C  0.05111361  0.46563197  0.72955690     0.84100
C126        C  0.03518635  0.07708747  0.73390135     0.83700
O127        O  0.45938993  0.46293761  0.73782019    -0.77400
C128        C  0.45702463  0.04226940  0.69333890     0.84600
O129        O  0.03418816  0.47811310  0.73502997    -0.77500
C130        C  0.07486073  0.04909501  0.68909598     0.84700
C131        C  0.46153830  0.41980952  0.69097933     0.85000
O132        O  0.49434853  0.43572219  0.69257764    -0.79900
C133        C  0.33188026  0.16391411  0.16685137     0.46500
H134        H  0.33165532  0.16242818  0.15650457    -0.02500
C135        C  0.33234425  0.16753272  0.19104349     0.46600
H136        H  0.33194033  0.16824380  0.20136240    -0.02500
C137        C  0.34887032  0.14449695  0.17316112    -0.16200
C138        C  0.35189133  0.20220195  0.17183628    -0.15900
C139        C  0.29523482  0.14743209  0.17267637    -0.16300
C140        C  0.34857873  0.14593989  0.18597493    -0.16300
C141        C  0.35196622  0.20407983  0.18466837    -0.15900
C142        C  0.29572512  0.14974954  0.18551155    -0.16200
C143        C  0.50063830  0.50093859  0.11941390     0.46500
H144        H  0.49935083  0.50058579  0.10908005    -0.02500
C145        C  0.50438252  0.50276243  0.14361432     0.46600
H146        H  0.50600032  0.50345268  0.15395926    -0.02500
C147        C  0.48417783  0.02076477  0.12587645    -0.16200
C148        C  0.48309273  0.46405508  0.12548647    -0.15900
C149        C  0.03889372  0.01860339  0.12449573    -0.16300
C150        C  0.48617574  0.02132066  0.13866840    -0.16300
C151        C  0.48505201  0.46481359  0.13829315    -0.15900
C152        C  0.04069128  0.01900304  0.13734806    -0.16200
O153        O  0.18594700  0.37838029  0.95581863    -0.77400
C154        C  0.08732679  0.28214975  0.94755767     0.83600
O155        O  0.22035927  0.30137106  0.93681585    -0.78500
O156        O  0.11940244  0.26855545  0.90905123    -0.80000
O157        O  0.15390279  0.39408059  0.91569905    -0.79800
O158        O  0.20538351  0.41735112  0.94018511    -0.78400
Zn159      Zn  0.16632319  0.33052415  0.94728445     1.55700
O160        O  0.10791204  0.34069948  0.91231911    -0.79800
Cd161      Cd  0.18969970  0.38546339  0.92467214     1.59700
Cd162      Cd  0.19972475  0.31706243  0.92238569     1.59600
O163        O  0.23163397  0.40216580  0.91276787    -0.79800
O164        O  0.16882484  0.33443699  0.92916468    -1.90300
Cd165      Cd  0.12119247  0.30658442  0.92154649     1.59900
O166        O  0.23936782  0.35543653  0.91137181    -0.79800
O167        O  0.08435713  0.28122678  0.93570348    -0.78400
C168        C  0.21459458  0.29916756  0.94853114     0.84100
C169        C  0.20112287  0.41022514  0.95178674     0.83700
O170        O  0.11672481  0.29987414  0.95285435    -0.77400
C171        C  0.12372291  0.37444784  0.91128942     0.84600
O172        O  0.19420363  0.30855169  0.95341231    -0.77500
C173        C  0.24774360  0.38716373  0.90841771     0.84700
C174        C  0.14164274  0.25907740  0.90623179     0.85000
O175        O  0.17205106  0.27416666  0.91085283    -0.79900
O176        O  0.38454387  0.18572917  0.01971363    -0.77400
C177        C  0.28502576  0.08910654  0.02601215     0.83600
O178        O  0.30773694  0.22350427  0.03673984    -0.78500
O179        O  0.26779883  0.12078298  0.06390737    -0.80000
O180        O  0.38707948  0.14655446  0.06204475    -0.79800
O181        O  0.41930140  0.19552508  0.03592814    -0.78400
Zn182      Zn  0.33678743  0.16849862  0.02712388     1.55700
O183        O  0.33220868  0.10219377  0.06241343    -0.79800
Cd184      Cd  0.38596660  0.18513055  0.05098005     1.59700
Cd185      Cd  0.32200215  0.20246764  0.05152002     1.59600
O186        O  0.40515757  0.23134659  0.06122367    -0.79800
O187        O  0.33747662  0.16922617  0.04525577    -1.90300
Cd188      Cd  0.30511508  0.12075927  0.05213260     1.59900
O189        O  0.36183792  0.24351481  0.06121884    -0.79800
O190        O  0.28088848  0.08525325  0.03778478    -0.78400
C191        C  0.30786445  0.21899820  0.02500451     0.84100
C192        C  0.41440322  0.19499789  0.02420980     0.83700
O193        O  0.30560143  0.11900486  0.02101038    -0.77400
C194        C  0.36393911  0.11556895  0.06552447     0.84600
O195        O  0.31836516  0.19907691  0.02032422    -0.77500
C196        C  0.39244251  0.25083833  0.06431669     0.84700
C197        C  0.26174113  0.14512783  0.06751534     0.85000
O198        O  0.27981080  0.17701325  0.06364986    -0.79900
C199        C  0.24620617  0.27151057  0.97785319     0.19800
C200        C  0.24780985  0.28018115  0.99051538    -0.18300
C201        C  0.26305024  0.26810596  0.99920197    -0.10600
C202        C  0.27694287  0.24670225  0.99541490     0.22000
C203        C  0.27536618  0.23809161  0.98272498    -0.20000
C204        C  0.26012912  0.25020562  0.97403543    -0.10800
C205        C  0.29227453  0.23175676  0.00426520    -0.15000
C206        C  0.29479307  0.23693883  0.01670174    -0.28800
C207        C  0.22874691  0.28431066  0.96913538    -0.03100
C208        C  0.23227254  0.28549653  0.95662764    -0.39600
H209        H  0.23713173  0.29639866  0.99372973     0.13200
H210        H  0.26341345  0.27553607  0.00881012     0.12800
H211        H  0.28557661  0.22145711  0.97951862     0.12200
H212        H  0.25871743  0.24208442  0.96444535     0.12500
H213        H  0.30119427  0.21468592  0.00030799     0.15200
H214        H  0.28628886  0.25367946  0.02110914     0.14000
H215        H  0.21286967  0.29419256  0.97330561     0.11700
H216        H  0.24901940  0.27724591  0.95216031     0.13700
C217        C  0.25423843  0.02873997  0.99708030     0.19800
C218        C  0.26737430  0.03338985  0.98488791    -0.18300
C219        C  0.25525640  0.50048611  0.97807195    -0.10600
C220        C  0.22736331  0.46730607  0.98165528     0.22000
C221        C  0.21413414  0.46309808  0.99384303    -0.20000
C222        C  0.22708244  0.99512453  0.00072071    -0.10800
C223        C  0.21228446  0.43652476  0.97301680    -0.15000
C224        C  0.21472459  0.44029449  0.96051974    -0.28800
C225        C  0.27008028  0.05968773  0.00557087    -0.03100
C226        C  0.26589288  0.05771447  0.01804129    -0.39600
H227        H  0.28839197  0.05889154  0.98184149     0.13200
H228        H  0.26721777  0.50469347  0.96896470     0.12800
H229        H  0.19281287  0.43778352  0.99687708     0.12200
H230        H  0.21563467  0.99037145  0.00992530     0.12500
H231        H  0.19823517  0.41008252  0.97705524     0.15200
H232        H  0.22702674  0.46652759  0.95634446     0.14000
H233        H  0.28753331  0.08529308  0.00134846     0.11700
H234        H  0.24954529  0.03258332  0.02267271     0.13700
C235        C  0.02717028  0.24511071  0.97660061     0.19800
C236        C  0.53397417  0.25065976  0.98967855    -0.18300
C237        C  0.50685839  0.23806210  0.99837551    -0.10600
C238        C  0.47204599  0.22032766  0.99443255     0.22000
C239        C  0.46530183  0.21553262  0.98157659    -0.20000
C240        C  0.99289694  0.23411838  0.97289534    -0.10800
C241        C  0.44212221  0.20780431  0.00327392    -0.15000
C242        C  0.44450316  0.20586229  0.01576420    -0.28800
C243        C  0.05750864  0.26189348  0.96792056    -0.03100
C244        C  0.05567839  0.26261305  0.95537003    -0.39600
H245        H  0.56045452  0.26455315  0.99304416     0.13200
H246        H  0.51363742  0.24320107  0.00810342     0.12800
H247        H  0.43878912  0.20206894  0.97824158     0.12200
H248        H  0.98674333  0.23645013  0.96332171     0.12500
H249        H  0.41684267  0.19989916  0.99926397     0.15200
H250        H  0.46901824  0.21255491  0.02009702     0.14000
H251        H  0.08302863  0.27477091  0.97220893     0.11700
H252        H  0.03086385  0.24915654  0.95066373     0.13700
C253        C  0.45730282  0.39555239  0.09909485     0.19800
C254        C  0.47543767  0.38593856  0.09069536    -0.18300
C255        C  0.45770481  0.35537375  0.08345775    -0.10600
C256        C  0.42135289  0.33412121  0.08441902     0.22000
C257        C  0.40324810  0.34421405  0.09263767    -0.20000
C258        C  0.42094413  0.37450287  0.09991691    -0.10800
C259        C  0.40105934  0.30224897  0.07664614    -0.15000
C260        C  0.41408864  0.28284624  0.07175103    -0.28800
C261        C  0.47650378  0.42824289  0.10658809    -0.03100
C262        C  0.46577578  0.43100542  0.11803594    -0.39600
H263        H  0.50338033  0.40206293  0.08976503     0.13200
H264        H  0.47243506  0.34902801  0.07694416     0.12800
H265        H  0.37522005  0.32861793  0.09340995     0.12200
H266        H  0.40596130  0.38177933  0.10596522     0.12500
H267        H  0.37370245  0.29359025  0.07533046     0.15200
H268        H  0.44077911  0.28972839  0.07352957     0.14000
H269        H  0.50050409  0.44978847  0.10280640     0.11700
H270        H  0.44361321  0.40802616  0.12200410     0.13700
C271        C  0.41685624  0.08645880  0.08598097     0.19800
C272        C  0.44565868  0.10480496  0.09377401    -0.18300
C273        C  0.45787152  0.08654690  0.10099027    -0.10600
C274        C  0.44149203  0.04936209  0.10053974     0.22000
C275        C  0.41297391  0.03098036  0.09262093    -0.20000
C276        C  0.40063682  0.04926243  0.08542906    -0.10800
C277        C  0.45438810  0.02922599  0.10782891    -0.15000
C278        C  0.47143720  0.04105793  0.11863201    -0.28800
C279        C  0.40583042  0.10727203  0.07813355    -0.03100
C280        C  0.37377072  0.09402668  0.07336791    -0.39600
H281        H  0.45893581  0.13346081  0.09422315     0.13200
H282        H  0.48066584  0.10177129  0.10664518     0.12800
H283        H  0.40025426  0.00238328  0.09197780     0.12200
H284        H  0.37906374  0.03420713  0.07924215     0.12500
H285        H  0.44822345  0.00316942  0.10451893     0.15200
H286        H  0.47509115  0.06558120  0.12258822     0.14000
H287        H  0.42472981  0.13501438  0.07650417     0.11700
H288        H  0.35384031  0.06700538  0.07544413     0.13700
C289        C  0.18419215  0.09425289  0.09041195     0.19800
C290        C  0.15981655  0.05823459  0.09212387    -0.18300
C291        C  0.13188821  0.04751184  0.10039691    -0.10600
C292        C  0.12752235  0.07266736  0.10720670     0.22000
C293        C  0.15251585  0.10862665  0.10582364    -0.20000
C294        C  0.18049000  0.11939327  0.09751010    -0.10800
C295        C  0.09810501  0.06212832  0.11615716    -0.15000
C296        C  0.06826065  0.03097583  0.11546610    -0.28800
C297        C  0.21338986  0.10403344  0.08142446    -0.03100
C298        C  0.23314726  0.13669755  0.07650051    -0.39600
H299        H  0.16232737  0.03819953  0.08700003     0.13200
H300        H  0.11420152  0.01942720  0.10155470     0.12800
H301        H  0.15030261  0.12851368  0.11115847     0.12200
H302        H  0.19927304  0.14731866  0.09685439     0.12500
H303        H  0.10087719  0.08071219  0.12340753     0.15200
H304        H  0.06362751  0.01408091  0.10745921     0.14000
H305        H  0.21814255  0.08295146  0.07844688     0.11700
H306        H  0.22831513  0.15802310  0.07895897     0.13700
C307        C  0.42903777  0.05915106  0.15160776     0.19800
C308        C  0.39580656  0.05352450  0.14865141    -0.18300
C309        C  0.38293196  0.07397409  0.15407246    -0.10600
C310        C  0.40318952  0.10091869  0.16258331     0.22000
C311        C  0.43624321  0.10627297  0.16565347    -0.20000
C312        C  0.44914082  0.08584911  0.16022255    -0.10800
C313        C  0.39049047  0.12284702  0.16895779    -0.15000
C314        C  0.36182619  0.12435950  0.16574918    -0.28800
C315        C  0.44213772  0.03808266  0.14486386    -0.03100
C316        C  0.47268710  0.03923336  0.14701439    -0.39600
H317        H  0.37968808  0.03323882  0.14203644     0.13200
H318        H  0.35701378  0.06816258  0.15163956     0.12800
H319        H  0.45235747  0.12659821  0.17225648     0.12200
H320        H  0.47501181  0.09163265  0.16269844     0.12500
H321        H  0.40570181  0.13869230  0.17678440     0.15200
H322        H  0.34794085  0.11188386  0.15728057     0.14000
H323        H  0.42597873  0.02128264  0.13737154     0.11700
H324        H  0.48821207  0.05286322  0.15506286     0.13700
C325        C  0.40839337  0.29727818  0.15848600     0.19800
C326        C  0.44391567  0.32284894  0.15846681    -0.18300
C327        C  0.45539404  0.35782605  0.15458652    -0.10600
C328        C  0.43144016  0.36825682  0.15074022     0.22000
C329        C  0.39599860  0.34257770  0.15063711    -0.20000
C330        C  0.38454657  0.30766807  0.15449525    -0.10800
C331        C  0.44204387  0.40452353  0.14585684    -0.15000
C332        C  0.47451269  0.43260589  0.14615735    -0.28800
C333        C  0.39714154  0.26144426  0.16394673    -0.03100
C334        C  0.36450633  0.23365198  0.16340694    -0.39600
H335        H  0.46292285  0.31580004  0.16157345     0.13200
H336        H  0.48299879  0.37629658  0.15453116     0.12800
H337        H  0.37691568  0.34960519  0.14760443     0.12200
H338        H  0.35691025  0.28935193  0.15462159     0.12500
H339        H  0.42222769  0.40787586  0.14111327     0.15200
H340        H  0.49452421  0.43192394  0.15171814     0.14000
H341        H  0.41603825  0.25854869  0.16951608     0.11700
H342        H  0.34571243  0.23397735  0.15705671     0.13700
C343        C  0.20062865  0.10508624  0.16037830     0.19800
C344        C  0.16936985  0.09624108  0.16654561    -0.18300
C345        C  0.13729582  0.07368171  0.16103029    -0.10600
C346        C  0.13571550  0.05974454  0.14906705     0.22000
C347        C  0.16698844  0.06834737  0.14293819    -0.20000
C348        C  0.19910300  0.09084024  0.14848098    -0.10800
C349        C  0.10224080  0.03687870  0.14255175    -0.15000
C350        C  0.07280448  0.03764703  0.14495305    -0.28800
C351        C  0.23398953  0.12890458  0.16677655    -0.03100
C352        C  0.26368458  0.12831842  0.16476178    -0.39600
H353        H  0.16976326  0.10648492  0.17577540     0.13200
H354        H  0.11396252  0.06702683  0.16626266     0.12800
H355        H  0.16657810  0.05816394  0.13369731     0.12200
H356        H  0.22252392  0.09747458  0.14330360     0.12500
H357        H  0.10250879  0.02076055  0.13489204     0.15200
H358        H  0.07159038  0.05285208  0.15271713     0.14000
H359        H  0.23331734  0.14566369  0.17411942     0.11700
H360        H  0.26528165  0.11259023  0.15724904     0.13700
C361        C  0.40367808  0.05923101  0.66877724     0.19800
C362        C  0.38448939  0.03934322  0.65850575    -0.18300
C363        C  0.37698221  0.05550300  0.64861860    -0.10600
C364        C  0.38813299  0.09199184  0.64890396     0.22000
C365        C  0.40636797  0.11159847  0.65937328    -0.20000
C366        C  0.41385615  0.09544518  0.66924402    -0.10800
C367        C  0.38223095  0.11091342  0.63843246    -0.15000
C368        C  0.35815589  0.09471363  0.62953145    -0.28800
C369        C  0.41390010  0.04175229  0.67851593    -0.03100
C370        C  0.44308761  0.05965152  0.68522028    -0.39600
H371        H  0.37630024  0.01141425  0.65792461     0.13200
H372        H  0.36341106  0.03941889  0.64067095     0.12800
H373        H  0.41498342  0.13963490  0.65990801     0.12200
H374        H  0.42765417  0.11147913  0.67718522     0.12500
H375        H  0.39746061  0.13968078  0.63836282     0.15200
H376        H  0.34111954  0.06624425  0.62975540     0.14000
H377        H  0.39904428  0.01304704  0.67929143     0.11700
H378        H  0.45948327  0.08800184  0.68387210     0.13700
C379        C  0.44153121  0.36026388  0.66266574     0.19800
C380        C  0.43823867  0.36704525  0.65009680    -0.18300
C381        C  0.42139168  0.33900808  0.64174136    -0.10600
C382        C  0.40855956  0.30392111  0.64582494     0.22000
C383        C  0.41248235  0.29728696  0.65834377    -0.20000
C384        C  0.42840688  0.32518966  0.66675268    -0.10800
C385        C  0.39357057  0.27401377  0.63704885    -0.15000
C386        C  0.37277939  0.27160251  0.62757415    -0.28800
C387        C  0.45915294  0.38999240  0.67141539    -0.03100
C388        C  0.44536458  0.38929219  0.68262023    -0.39600
H389        H  0.44844318  0.39399957  0.64679020     0.13200
H390        H  0.41938338  0.34479492  0.63204807     0.12800
H391        H  0.40317589  0.27043637  0.66160969     0.12200
H392        H  0.43118171  0.31947157  0.67638570     0.12500
H393        H  0.39896613  0.25254532  0.63872614     0.15200
H394        H  0.36459199  0.29119481  0.62642668     0.14000
H395        H  0.48233619  0.41382811  0.66827198     0.11700
H396        H  0.42013986  0.36716829  0.68520345     0.13700
C397        C  0.17721846  0.10316594  0.63926484     0.19800
C398        C  0.18154780  0.12144974  0.65046117    -0.18300
C399        C  0.15960467  0.10488217  0.66064902    -0.10600
C400        C  0.13239408  0.06962945  0.65979859     0.22000
C401        C  0.12782897  0.05138950  0.64856991    -0.20000
C402        C  0.14978007  0.06798766  0.63836303    -0.10800
C403        C  0.10849089  0.05101614  0.67041328    -0.15000
C404        C  0.10162111  0.06807102  0.67944808    -0.28800
C405        C  0.20282446  0.12132620  0.62903797    -0.03100
C406        C  0.21022159  0.10380764  0.62035724    -0.39600
H407        H  0.20259523  0.14844655  0.65144509     0.13200
H408        H  0.16461147  0.11958433  0.66922691     0.12800
H409        H  0.10698254  0.02426816  0.64765441     0.12200
H410        H  0.14497295  0.05319224  0.62981770     0.12500
H411        H  0.09423377  0.02221997  0.67030910     0.15200
H412        H  0.11350981  0.09670285  0.67917569     0.14000
H413        H  0.21912374  0.14994300  0.62959068     0.11700
H414        H  0.19610886  0.07508189  0.62021735     0.13700
C415        C  0.26248021  0.00347001  0.55626516     0.19800
C416        C  0.23460990  0.46655454  0.55918699    -0.18300
C417        C  0.22210585  0.43959221  0.55036006    -0.10600
C418        C  0.23544809  0.44651306  0.53812963     0.22000
C419        C  0.26248055  0.48048725  0.53507107    -0.20000
C420        C  0.27846511  0.00969094  0.54443643    -0.10800
C421        C  0.22181306  0.41866465  0.52847002    -0.15000
C422        C  0.18838343  0.39300366  0.52831478    -0.28800
C423        C  0.27370129  0.03126633  0.56594411    -0.03100
C424        C  0.29167676  0.06614455  0.56340155    -0.39600
H425        H  0.22359570  0.46053270  0.56850459     0.13200
H426        H  0.20222232  0.41331251  0.55319207     0.12800
H427        H  0.27853835  0.98823609  0.52644511     0.12200
H428        H  0.30057451  0.03504756  0.54200358     0.12500
H429        H  0.23930358  0.41989485  0.52112481     0.15200
H430        H  0.17072714  0.39137728  0.53563728     0.14000
H431        H  0.26554362  0.02262454  0.57549895     0.11700
H432        H  0.29906059  0.07558364  0.55389963     0.13700
C433        C  0.48897766  0.24873437  0.55720852     0.19800
C434        C  0.98673969  0.24252000  0.54402824    -0.18300
C435        C  0.01712538  0.25922326  0.53689537    -0.10600
C436        C  0.04929810  0.28080303  0.54263987     0.22000
C437        C  0.05026245  0.28591654  0.55557186    -0.20000
C438        C  0.01984831  0.26913271  0.56272163    -0.10800
C439        C  0.08213694  0.29946775  0.53542875    -0.15000
C440        C  0.08705852  0.28819257  0.52436018    -0.28800
C441        C  0.45554503  0.23113242  0.56416418    -0.03100
C442        C  0.45248623  0.22746521  0.57666710    -0.39600
H443        H  0.96227361  0.22612696  0.53935816     0.13200
H444        H  0.01509590  0.25572265  0.52689315     0.12800
H445        H  0.07469157  0.30293706  0.56016727     0.12200
H446        H  0.52220925  0.27902995  0.57258326     0.12500
H447        H  0.10315040  0.32329070  0.53950180     0.15200
H448        H  0.06648998  0.26430409  0.52019932     0.14000
H449        H  0.43206608  0.21985071  0.55858256     0.11700
H450        H  0.47526096  0.23720301  0.58252806     0.13700
C451        C  0.23796942  0.29077772  0.53829965     0.19800
C452        C  0.26594114  0.28540432  0.53567830    -0.18300
C453        C  0.27891363  0.27231726  0.54489606    -0.10600
C454        C  0.26404466  0.26440730  0.55695064     0.22000
C455        C  0.23731896  0.27166381  0.55970383    -0.20000
C456        C  0.22437189  0.28468836  0.55049886    -0.10800
C457        C  0.27534317  0.24840964  0.56686992    -0.15000
C458        C  0.29157279  0.23000604  0.56440192    -0.28800
C459        C  0.22366427  0.30322167  0.52826633    -0.03100
C460        C  0.18980557  0.29327048  0.52786834    -0.39600
H461        H  0.27732119  0.29070007  0.52641778     0.13200
H462        H  0.30058822  0.26864190  0.54250268     0.12800
H463        H  0.22594209  0.26660587  0.56896016     0.12200
H464        H  0.20380826  0.29009292  0.55298668     0.12500
H465        H  0.26846104  0.25025390  0.57646390     0.15200
H466        H  0.29764654  0.22677903  0.55486654     0.14000
H467        H  0.24110681  0.32043614  0.52101470     0.11700
H468        H  0.17230618  0.27619336  0.53511284     0.13700
C469        C  0.26766373  0.03177668  0.48256005     0.19800
C470        C  0.25989499  0.99978796  0.47674565    -0.18300
C471        C  0.25285063  0.47081479  0.48914744    -0.10600
C472        C  0.22287031  0.46478885  0.49571798     0.22000
C473        C  0.21574071  0.49272741  0.49677187    -0.20000
C474        C  0.25384290  0.03033231  0.49452001    -0.10800
C475        C  0.19956737  0.43045911  0.50209566    -0.15000
C476        C  0.19820025  0.39969017  0.49915910    -0.28800
C477        C  0.29002600  0.06567426  0.47573585    -0.03100
C478        C  0.29214409  0.09695798  0.47845255    -0.39600
H479        H  0.26999136  0.00001458  0.46751379     0.13200
H480        H  0.26009315  0.45052933  0.48848476     0.12800
H481        H  0.19303741  0.48895717  0.50187825     0.12200
H482        H  0.25961445  0.05415946  0.49950452     0.12500
H483        H  0.18290110  0.43058557  0.50950365     0.15200
H484        H  0.21160380  0.39817186  0.49092129     0.14000
H485        H  0.30437371  0.06441145  0.46771841     0.11700
H486        H  0.27925102  0.09959623  0.48662649     0.13700
C487        C  0.46333975  0.22681244  0.48256808     0.19800
C488        C  0.99147986  0.22763174  0.47745808    -0.18300
C489        C  0.02471623  0.24953307  0.48226618    -0.10600
C490        C  0.02961734  0.27259439  0.49218295     0.22000
C491        C  0.00044396  0.27325449  0.49703056    -0.20000
C492        C  0.46854061  0.25226507  0.49163010    -0.10800
C493        C  0.06386182  0.29486542  0.49831985    -0.15000
C494        C  0.09317460  0.29355804  0.49602749    -0.28800
C495        C  0.42913723  0.20397003  0.47646079    -0.03100
C496        C  0.39897305  0.20290759  0.47937794    -0.39600
H497        H  0.98863157  0.21028594  0.46978075     0.13200
H498        H  0.04618448  0.24800226  0.47816835     0.12800
H499        H  0.00330078  0.29056276  0.50472263     0.12200
H500        H  0.44739250  0.25565526  0.49496614     0.12500
H501        H  0.06429640  0.31161558  0.50588919     0.15200
H502        H  0.09521468  0.27936280  0.48810215     0.14000
H503        H  0.42916990  0.18826636  0.46860956     0.11700
H504        H  0.39662943  0.21549531  0.48772632     0.13700
C505        C  0.27207833  0.24056810  0.48347889     0.19800
C506        C  0.26688068  0.26707097  0.47811396    -0.18300
C507        C  0.24425455  0.27689611  0.48360588    -0.10600
C508        C  0.22637269  0.26054759  0.49473366     0.22000
C509        C  0.23175633  0.23417997  0.50012438    -0.20000
C510        C  0.25436842  0.22436851  0.49463364    -0.10800
C511        C  0.20240854  0.27022806  0.50121013    -0.15000
C512        C  0.20009960  0.29936187  0.49864590    -0.28800
C513        C  0.29547103  0.23025352  0.47695866    -0.03100
C514        C  0.29392962  0.19877140  0.47857635    -0.39600
H515        H  0.27998065  0.27987574  0.46949193     0.13200
H516        H  0.24076297  0.29695584  0.47895148     0.12800
H517        H  0.21866500  0.22131402  0.50873917     0.12200
H518        H  0.25808460  0.20444345  0.49929741     0.12500
H519        H  0.18684476  0.25311576  0.50882063     0.15200
H520        H  0.21396963  0.31621739  0.49078632     0.14000
H521        H  0.31288655  0.24823273  0.46985962     0.11700
H522        H  0.27761148  0.18063242  0.48580522     0.13700
C523        C  0.37467990  0.44632699  0.86614099     0.19800
C524        C  0.35444081  0.46146799  0.86958749    -0.18300
C525        C  0.32734957  0.44447038  0.87826167    -0.10600
C526        C  0.31986651  0.41173057  0.88361461     0.22000
C527        C  0.33919269  0.39595254  0.87970500    -0.20000
C528        C  0.36620334  0.41292689  0.87106614    -0.10800
C529        C  0.29170627  0.39252592  0.89298860    -0.15000
C530        C  0.27650803  0.40750764  0.89953896    -0.28800
C531        C  0.40445430  0.46568646  0.85742773    -0.03100
C532        C  0.43265991  0.46187850  0.85799663    -0.39600
H533        H  0.35999442  0.48681058  0.86572087     0.13200
H534        H  0.31233819  0.45703528  0.88059735     0.12800
H535        H  0.33355014  0.37043219  0.88342774     0.12200
H536        H  0.38026682  0.39969353  0.86822048     0.12500
H537        H  0.28344131  0.36478515  0.89468945     0.15200
H538        H  0.28460684  0.43528724  0.89827823     0.14000
H539        H  0.40392596  0.48445863  0.85084056     0.11700
H540        H  0.43488455  0.44634018  0.86551028     0.13700
C541        C  0.06275270  0.39598736  0.89237138     0.19800
C542        C  0.04178317  0.38075342  0.88189759    -0.18300
C543        C  0.03107524  0.40030538  0.87459966    -0.10600
C544        C  0.04114660  0.43556549  0.87770637     0.22000
C545        C  0.06030512  0.44992431  0.88862011    -0.20000
C546        C  0.07096341  0.43041653  0.89589238    -0.10800
C547        C  0.03220429  0.45829498  0.86996395    -0.15000
C548        C  0.02329755  0.45222552  0.85787559    -0.28800
C549        C  0.07653146  0.37593937  0.89926469    -0.03100
C550        C  0.10764478  0.39261866  0.90485640    -0.39600
H551        H  0.03447907  0.35400594  0.87915770     0.13200
H552        H  0.01502119  0.38762493  0.86657861     0.12800
H553        H  0.06766600  0.47665110  0.89141532     0.12200
H554        H  0.08576858  0.44247993  0.90423104     0.12500
H555        H  0.04064250  0.98519528  0.87166418     0.15200
H556        H  0.02246339  0.42973490  0.85325477     0.14000
H557        H  0.06211276  0.34717043  0.89900523     0.11700
H558        H  0.12303017  0.42131667  0.90440946     0.13700
C559        C  0.07326214  0.12436332  0.86630286     0.19800
C560        C  0.10851739  0.14800694  0.86858474    -0.18300
C561        C  0.11858144  0.17684740  0.87661261    -0.10600
C562        C  0.09344178  0.18278317  0.88249135     0.22000
C563        C  0.05830545  0.15986993  0.87979685    -0.20000
C564        C  0.04828636  0.13107158  0.87182428    -0.10800
C565        C  0.10251597  0.21272170  0.89126283    -0.15000
C566        C  0.13294832  0.22985224  0.89734302    -0.28800
C567        C  0.06317027  0.09391170  0.85772372    -0.03100
C568        C  0.03185903  0.06433438  0.85834579    -0.39600
H569        H  0.12833246  0.14401678  0.86420703     0.13200
H570        H  0.14602795  0.19454697  0.87800507     0.12800
H571        H  0.03840483  0.16413340  0.88394980     0.12200
H572        H  0.02092859  0.11448609  0.86986902     0.12500
H573        H  0.08281299  0.22002458  0.89314406     0.15200
H574        H  0.15250414  0.22214960  0.89595820     0.14000
H575        H  0.08188299  0.09580687  0.85077144     0.11700
H576        H  0.01469531  0.06059782  0.86613519     0.13700
C577        C  0.28866392  0.36861098  0.77053859     0.19800
C578        C  0.32194506  0.37433973  0.77319121    -0.18300
C579        C  0.34766272  0.38710184  0.76391298    -0.10600
C580        C  0.34036163  0.39427041  0.75177971     0.22000
C581        C  0.30643939  0.38640052  0.74901114    -0.20000
C582        C  0.28084829  0.37367111  0.75825281    -0.10800
C583        C  0.36720252  0.41054468  0.74180736    -0.15000
C584        C  0.40135185  0.42919498  0.74417674    -0.28800
C585        C  0.26223717  0.35728084  0.78059440    -0.03100
C586        C  0.23885664  0.36827779  0.78067438    -0.39600
H587        H  0.32826888  0.36977680  0.78251972     0.13200
H588        H  0.37304402  0.39127780  0.76634295     0.12800
H589        H  0.29985993  0.39087633  0.73971207     0.12200
H590        H  0.25493806  0.36788444  0.75574604     0.12500
H591        H  0.35844761  0.40913072  0.73225987     0.15200
H592        H  0.41070366  0.43202288  0.75366434     0.14000
H593        H  0.26197054  0.33991575  0.78795970     0.11700
H594        H  0.23932464  0.38579269  0.77334407     0.13700
C595        C  0.10293961  0.42332333  0.74266943     0.19800
C596        C  0.11264856  0.43663930  0.75484575    -0.18300
C597        C  0.12322665  0.41976932  0.76346150    -0.10600
C598        C  0.12496401  0.38949902  0.76003600     0.22000
C599        C  0.11697686  0.37739494  0.74769573    -0.20000
C600        C  0.10623703  0.39419646  0.73909825    -0.10800
C601        C  0.13416948  0.36914715  0.76892429    -0.15000
C602        C  0.14578200  0.37920160  0.78063448    -0.28800
C603        C  0.08778209  0.43811655  0.73372663    -0.03100
C604        C  0.07004615  0.45379050  0.73770584    -0.39600
H605        H  0.11193911  0.45999145  0.75783147     0.13200
H606        H  0.12931536  0.43039044  0.77277537     0.12800
H607        H  0.11845533  0.35439388  0.74473395     0.12200
H608        H  0.09935311  0.38365581  0.72975555     0.12500
H609        H  0.13070210  0.34406555  0.76558937     0.15200
H610        H  0.14864982  0.40347155  0.78446541     0.14000
H611        H  0.08862651  0.43339895  0.72382246     0.11700
H612        H  0.06727871  0.45652712  0.74763134     0.13700
C613        C  0.06560068  0.16552162  0.75080743     0.19800
C614        C  0.08941574  0.20085144  0.74782789    -0.18300
C615        C  0.10154941  0.22676292  0.75705573    -0.10600
C616        C  0.08989294  0.21781127  0.76946915     0.22000
C617        C  0.06452532  0.18290956  0.77231522    -0.20000
C618        C  0.05251234  0.15690249  0.76308547    -0.10800
C619        C  0.10395334  0.24453952  0.77952400    -0.15000
C620        C  0.13731290  0.27031301  0.77944199    -0.28800
C621        C  0.05500296  0.13836039  0.74092759    -0.03100
C622        C  0.04596424  0.10462176  0.74350516    -0.39600
H623        H  0.09926466  0.20827959  0.73839291     0.13200
H624        H  0.12002540  0.25379733  0.75444032     0.12800
H625        H  0.05464940  0.17560392  0.78175269     0.12200
H626        H  0.03299830  0.13016179  0.76559646     0.12500
H627        H  0.08698164  0.24262252  0.78716958     0.15200
H628        H  0.15419118  0.27208778  0.77179584     0.14000
H629        H  0.05627239  0.14669018  0.73127916     0.11700
H630        H  0.04620129  0.09649633  0.75307301     0.13700
C631        C  0.09896325  0.39776606  0.81330247     0.19800
C632        C  0.06587025  0.39257490  0.81039794    -0.18300
C633        C  0.05269838  0.41206150  0.81636438    -0.10600
C634        C  0.07258426  0.43766410  0.82534007     0.22000
C635        C  0.10567708  0.44286829  0.82823388    -0.20000
C636        C  0.11884464  0.42339126  0.82226934    -0.10800
C637        C  0.05933863  0.45807490  0.83241279    -0.15000
C638        C  0.03080482  0.46005978  0.82942087    -0.28800
C639        C  0.11223064  0.37727066  0.80628706    -0.03100
C640        C  0.14057310  0.37505324  0.80941486    -0.39600
H641        H  0.04998969  0.37317154  0.80349409     0.13200
H642        H  0.02678063  0.40644744  0.81402494     0.12800
H643        H  0.12155927  0.46225964  0.83514081     0.12200
H644        H  0.14476587  0.42902513  0.82461095     0.12500
H645        H  0.07388459  0.47216183  0.84061872     0.15200
H646        H  0.01765515  0.44951129  0.82066097     0.14000
H647        H  0.09768253  0.36309287  0.79809962     0.11700
H648        H  0.15352321  0.38560614  0.81820456     0.13700
C649        C  0.30352129  0.40523626  0.81359259     0.19800
C650        C  0.33313454  0.43629048  0.80944561    -0.18300
C651        C  0.36577718  0.44746891  0.81473040    -0.10600
C652        C  0.36977520  0.42771482  0.82436563     0.22000
C653        C  0.34016881  0.39656648  0.82848902    -0.20000
C654        C  0.30749332  0.38536342  0.82318887    -0.10800
C655        C  0.40357111  0.43898989  0.83079286    -0.15000
C656        C  0.43326151  0.46991923  0.82879511    -0.28800
C657        C  0.26985526  0.39407154  0.80711416    -0.03100
C658        C  0.23909848  0.36515126  0.80994592    -0.39600
H659        H  0.33107992  0.45202320  0.80198890     0.13200
H660        H  0.38750711  0.47157474  0.81116983     0.12800
H661        H  0.34226477  0.38081271  0.83592880     0.12200
H662        H  0.28574392  0.36104474  0.82662120     0.12500
H663        H  0.40349243  0.42149346  0.83806190     0.15200
H664        H  0.43554082  0.48705013  0.82107706     0.14000
H665        H  0.27075085  0.41036765  0.79927324     0.11700
H666        H  0.23610627  0.34991654  0.81832778     0.13700
C667        C  0.10714934  0.20049444  0.81289984     0.19800
C668        C  0.09922925  0.16860290  0.80697353    -0.18300
C669        C  0.07766745  0.13582993  0.81272989    -0.10600
C670        C  0.06365225  0.13414681  0.82467424     0.22000
C671        C  0.07176485  0.16601445  0.83064259    -0.20000
C672        C  0.09335761  0.19879316  0.82489236    -0.10800
C673        C  0.04063582  0.10001924  0.83127594    -0.15000
C674        C  0.04036517  0.06946771  0.82893920    -0.28800
C675        C  0.12943084  0.23456599  0.80612679    -0.03100
C676        C  0.13119056  0.26564680  0.80890780    -0.39600
H677        H  0.10930145  0.16900795  0.79772188     0.13200
H678        H  0.07161083  0.11204427  0.80765286     0.12800
H679        H  0.06162540  0.16556477  0.83988690     0.12200
H680        H  0.09931387  0.22252317  0.82997820     0.12500
H681        H  0.02472831  0.10061631  0.83887977     0.15200
H682        H  0.05515035  0.06778385  0.82118096     0.14000
H683        H  0.14384552  0.23355360  0.79809552     0.11700
H684        H  0.11817679  0.26792711  0.81711038     0.13700
C685        C  0.41321550  0.33662237  0.22522023     0.19800
C686        C  0.43060048  0.32978163  0.21563311    -0.18300
C687        C  0.41333627  0.29922955  0.20843292    -0.10600
C688        C  0.37809353  0.27460920  0.21068189     0.22000
C689        C  0.36078394  0.28116731  0.22039457    -0.20000
C690        C  0.37806201  0.31194501  0.22757021    -0.10800
C691        C  0.35942943  0.24108367  0.20350959    -0.15000
C692        C  0.36841035  0.23800601  0.19177395    -0.28800
C693        C  0.43335953  0.36870052  0.23294357    -0.03100
C694        C  0.41927311  0.38495239  0.23943308    -0.39600
H695        H  0.45781924  0.34806508  0.21376169     0.13200
H696        H  0.42805563  0.29459218  0.20137278     0.12800
H697        H  0.33383687  0.26233958  0.22246416     0.12200
H698        H  0.36409057  0.31578348  0.23512513     0.12500
H699        H  0.33720602  0.21892713  0.20793900     0.15200
H700        H  0.38832966  0.26157296  0.18724315     0.14000
H701        H  0.46142947  0.38020639  0.23289819     0.11700
H702        H  0.39156037  0.37531955  0.23904553     0.13700
C703        C  0.37926324  0.11204642  0.21385450     0.19800
C704        C  0.40587676  0.12931377  0.22258233    -0.18300
C705        C  0.41666568  0.11011805  0.22999774    -0.10600
C706        C  0.40078275  0.07306521  0.22890613     0.22000
C707        C  0.37294472  0.05556269  0.22064022    -0.20000
C708        C  0.36235850  0.07482869  0.21311969    -0.10800
C709        C  0.41291543  0.05227118  0.23625754    -0.15000
C710        C  0.44656580  0.06559082  0.23919149    -0.28800
C711        C  0.36967586  0.13364121  0.20577481    -0.03100
C712        C  0.35708259  0.12374002  0.19421137    -0.39600
H713        H  0.41882951  0.15785914  0.22350123     0.13200
H714        H  0.43735160  0.12434968  0.23661348     0.12800
H715        H  0.35987049  0.02699379  0.21980587     0.12200
H716        H  0.34086219  0.06051095  0.20681759     0.12500
H717        H  0.39428873  0.02496354  0.23865591     0.15200
H718        H  0.46552385  0.09199360  0.23598878     0.14000
H719        H  0.37561215  0.15961099  0.20909183     0.11700
H720        H  0.35378583  0.09911741  0.19048308     0.13700
C721        C  0.20595404  0.09507896  0.20162188     0.19800
C722        C  0.18271901  0.05901090  0.20379692    -0.18300
C723        C  0.15340745  0.04824857  0.21140501    -0.10600
C724        C  0.14664639  0.07351670  0.21700669     0.22000
C725        C  0.16925910  0.10951610  0.21441990    -0.20000
C726        C  0.19848050  0.12022648  0.20682067    -0.10800
C727        C  0.11658674  0.06387134  0.22555513    -0.15000
C728        C  0.09769443  0.03179884  0.23095342    -0.28800
C729        C  0.23685176  0.10562944  0.19348805    -0.03100
C730        C  0.26534644  0.13790625  0.19395896    -0.39600
H731        H  0.18739027  0.03906635  0.19966008     0.13200
H732        H  0.13619971  0.02016362  0.21271666     0.12800
H733        H  0.16444724  0.12956520  0.21837739     0.12200
H734        H  0.21481005  0.14822212  0.20492624     0.12500
H735        H  0.11076697  0.08463477  0.22795002     0.15200
H736        H  0.10343511  0.01079658  0.22905552     0.14000
H737        H  0.23627966  0.08627764  0.18697308     0.11700
H738        H  0.26798074  0.15606269  0.20133005     0.13700
C739        C  0.08977001  0.39876340  0.33120806     0.19800
C740        C  0.07914300  0.38249814  0.31952572    -0.18300
C741        C  0.06981716  0.39818067  0.31005148    -0.10600
C742        C  0.07127120  0.43077426  0.31207013     0.22000
C743        C  0.08173032  0.44695308  0.32377890    -0.20000
C744        C  0.09104723  0.43125907  0.33325657    -0.10800
C745        C  0.06022215  0.44792504  0.30259207    -0.15000
C746        C  0.05536947  0.43950869  0.29038475    -0.28800
C747        C  0.10148001  0.38198571  0.34058429    -0.03100
C748        C  0.10601595  0.39004782  0.35281233    -0.39600
H749        H  0.07803464  0.35746722  0.31771314     0.13200
H750        H  0.06103842  0.38433651  0.30130484     0.12800
H751        H  0.08289181  0.47201034  0.32558764     0.12200
H752        H  0.09987728  0.44509442  0.34200560     0.12500
H753        H  0.05527827  0.46851686  0.30600718     0.15200
H754        H  0.06112363  0.42004221  0.28647874     0.14000
H755        H  0.10704840  0.36189013  0.33709111     0.11700
H756        H  0.09918224  0.40862747  0.35682028     0.13700
C757        C  0.08051426  0.14204665  0.31065774     0.19800
C758        C  0.06921116  0.13337911  0.32307038    -0.18300
C759        C  0.07793893  0.15974789  0.33195610    -0.10600
C760        C  0.09878926  0.19563312  0.32865546     0.22000
C761        C  0.11024882  0.20433837  0.31623616    -0.20000
C762        C  0.10133122  0.17787418  0.30730746    -0.10800
C763        C  0.10912481  0.22479960  0.33776001    -0.15000
C764        C  0.10617842  0.22031285  0.35024294    -0.28800
C765        C  0.06927020  0.11257674  0.30167680    -0.03100
C766        C  0.06954827  0.11576381  0.28914864    -0.39600
H767        H  0.05297649  0.10596678  0.32589040     0.13200
H768        H  0.06775806  0.15162777  0.34128489     0.12800
H769        H  0.12638527  0.23177521  0.31343664     0.12200
H770        H  0.11104930  0.18566762  0.29790079     0.12500
H771        H  0.12112930  0.25154869  0.33396951     0.15200
H772        H  0.09550683  0.19426137  0.35444326     0.14000
H773        H  0.05771655  0.08617865  0.30575203     0.11700
H774        H  0.08019014  0.14147194  0.28465846     0.13700
C775        C  0.35643107  0.43411322  0.31295632     0.19800
C776        C  0.32498075  0.43413019  0.31383555    -0.18300
C777        C  0.30529701  0.42304024  0.32480344    -0.10600
C778        C  0.31616215  0.41067024  0.33507314     0.22000
C779        C  0.34792612  0.41114663  0.33428022    -0.20000
C780        C  0.36779640  0.42251129  0.32330618    -0.10800
C781        C  0.29422862  0.39659122  0.34650792    -0.15000
C782        C  0.25947824  0.37954510  0.34565936    -0.28800
C783        C  0.37668184  0.44601430  0.30112571    -0.03100
C784        C  0.41145786  0.46278956  0.30111130    -0.39600
H785        H  0.31582442  0.44319198  0.30606050     0.13200
H786        H  0.28159421  0.42435959  0.32521439     0.12800
H787        H  0.35691524  0.40184706  0.34203446     0.12200
H788        H  0.39161375  0.42141220  0.32286045     0.12500
H789        H  0.30650841  0.39931561  0.35549933     0.15200
H790        H  0.24774138  0.37524262  0.33649163     0.14000
H791        H  0.36289089  0.44211499  0.29239554     0.11700
H792        H  0.42505669  0.46840827  0.30994934     0.13700
C793        C  0.27982442  0.06001369  0.43158239     0.19800
C794        C  0.29658978  0.04797201  0.42349368    -0.18300
C795        C  0.27682097  0.51998897  0.41591285    -0.10600
C796        C  0.24058297  0.49894573  0.41745883     0.22000
C797        C  0.22429203  0.00931962  0.42567551    -0.20000
C798        C  0.24333583  0.04053595  0.43248157    -0.10800
C799        C  0.21940806  0.46597984  0.41020681    -0.15000
C800        C  0.23254056  0.44665807  0.40529453    -0.28800
C801        C  0.30105410  0.09304320  0.43883051    -0.03100
C802        C  0.29097875  0.09862364  0.45002106    -0.39600
H803        H  0.32459473  0.06270868  0.42248144     0.13200
H804        H  0.29065025  0.51339569  0.40908531     0.12800
H805        H  0.19625227  0.99491212  0.42656696     0.12200
H806        H  0.22931214  0.04954492  0.43828475     0.12500
H807        H  0.19178549  0.45657820  0.40931040     0.15200
H808        H  0.25972610  0.45477127  0.40658747     0.14000
H809        H  0.32674802  0.11197421  0.43532992     0.11700
H810        H  0.26654843  0.07851249  0.45401735     0.13700
C811        C  0.99845730  0.26868994  0.41846362     0.19800
C812        C  0.98858962  0.28409815  0.42794000    -0.18300
C813        C  0.45829398  0.26295624  0.43431824    -0.10600
C814        C  0.43812700  0.22621149  0.43224607     0.22000
C815        C  0.44848135  0.21085670  0.42295141    -0.20000
C816        C  0.47907261  0.23127090  0.41621622    -0.10800
C817        C  0.40593714  0.20308699  0.43940988    -0.15000
C818        C  0.40089184  0.21002534  0.45116243    -0.28800
C819        C  0.03215844  0.29000827  0.41179667    -0.03100
C820        C  0.04988343  0.27473141  0.40734651    -0.39600
H821        H  0.00503303  0.31177651  0.43024727     0.13200
H822        H  0.45036986  0.27596378  0.44108674     0.12800
H823        H  0.43304347  0.18280851  0.42099291     0.12200
H824        H  0.98176404  0.22050864  0.40780909     0.12500
H825        H  0.38694824  0.17830190  0.43519072     0.15200
H826        H  0.42094730  0.23341494  0.45575246     0.14000
H827        H  0.04277290  0.31841237  0.41078343     0.11700
H828        H  0.03996812  0.24667537  0.40901795     0.13700
C829        C  0.24662851  0.26522239  0.42437155     0.19800
C830        C  0.28162511  0.27748676  0.42711213    -0.18300
C831        C  0.29093650  0.25910572  0.43555235    -0.10600
C832        C  0.26527888  0.22795303  0.44143671     0.22000
C833        C  0.23025437  0.21687895  0.43925042    -0.20000
C834        C  0.22094052  0.23525863  0.43081875    -0.10800
C835        C  0.27420988  0.20686382  0.45003266    -0.15000
C836        C  0.30462049  0.20731665  0.44931499    -0.28800
C837        C  0.23772691  0.28438781  0.41488087    -0.03100
C838        C  0.20813957  0.26822413  0.40833838    -0.39600
H839        H  0.30185281  0.30101597  0.42254395     0.13200
H840        H  0.31822211  0.26951274  0.43746506     0.12800
H841        H  0.21002022  0.19359679  0.44393384     0.12200
H842        H  0.19360750  0.22596748  0.42946423     0.12500
H843        H  0.25491265  0.18965431  0.45683155     0.15200
H844        H  0.32226194  0.22103944  0.44162858     0.14000
H845        H  0.25623533  0.31212060  0.41304035     0.11700
H846        H  0.19006396  0.24024272  0.40981637     0.13700
O847        O  0.20050944  0.85053189  0.35291163    -0.77400
C848        C  0.11871940  0.74712729  0.35939434     0.83600
O849        O  0.12210805  0.87646908  0.37268351    -0.78500
O850        O  0.09472897  0.77082794  0.39587288    -0.80000
O851        O  0.22048745  0.81584963  0.39460013    -0.79800
O852        O  0.24261458  0.86533992  0.36680930    -0.78400
Zn853      Zn  0.15538010  0.82689112  0.36148189     1.55700
O854        O  0.16740560  0.76846797  0.39603920    -0.79800
Cd855      Cd  0.21223318  0.85060181  0.38328617     1.59700
Cd856      Cd  0.14076642  0.85672193  0.38670800     1.59600
O857        O  0.22683805  0.89596372  0.39369857    -0.79800
O858        O  0.16148718  0.82893800  0.37917538    -1.90300
Cd859      Cd  0.13611020  0.77906011  0.38517755     1.59900
O860        O  0.17872616  0.89944750  0.39683117    -0.79800
O861        O  0.11807975  0.74206585  0.37108235    -0.78400
C862        C  0.11931697  0.87033856  0.36099697     0.84100
C863        C  0.23235062  0.86372143  0.35556672     0.83700
O864        O  0.13139513  0.77803697  0.35478351    -0.77400
C865        C  0.19939119  0.78487546  0.39884682     0.84600
O866        O  0.12999916  0.85103713  0.35602086    -0.77500
C867        C  0.21124476  0.91125491  0.39836503     0.84700
C868        C  0.08345798  0.79032817  0.40025401     0.85000
O869        O  0.09831953  0.82362743  0.39806964    -0.79900
O870        O  0.03489932  0.55144866  0.28698826    -0.77400
C871        C  0.43251344  0.97177908  0.28959287     0.83600
O872        O  0.03259298  0.94650406  0.27127892    -0.78500
O873        O  0.42913632  0.93375322  0.25108684    -0.80000
O874        O  0.49245167  0.56082815  0.24651255    -0.79800
O875        O  0.05303068  0.58594465  0.27017166    -0.78400
Zn876      Zn  0.50817363  0.00586304  0.28181021     1.55700
O877        O  0.43881679  0.51761958  0.25141902    -0.79800
Cd878      Cd  0.02801074  0.54762536  0.25650795     1.59700
Cd879      Cd  0.01377565  0.96611477  0.25738684     1.59600
O880        O  0.06436834  0.54947771  0.24379996    -0.79800
O881        O  0.49939049  0.00043169  0.26424532    -1.90300
Cd882      Cd  0.44798421  0.97993544  0.26148648     1.59900
O883        O  0.05552011  0.49425422  0.24407900    -0.79800
O884        O  0.42050365  0.96697884  0.27851699    -0.78400
C885        C  0.03880516  0.95560812  0.28266991     0.84100
C886        C  0.05147012  0.58189143  0.28196740     0.83700
O887        O  0.46481822  0.98638383  0.29165315    -0.77400
C888        C  0.45954530  0.54698433  0.24600621     0.84600
O889        O  0.03186163  0.97818199  0.28731694    -0.77500
C890        C  0.07153234  0.52603299  0.24001289     0.84700
C891        C  0.44292121  0.91621389  0.24683832     0.85000
O892        O  0.47480388  0.92572851  0.24864428    -0.79900
C893        C  0.17090124  0.83489968  0.80660969     0.46500
H894        H  0.17111545  0.83519621  0.81697155    -0.02500
C895        C  0.17044222  0.83447364  0.78242236     0.46600
H896        H  0.17100251  0.83418199  0.77207115    -0.02500
C897        C  0.15417266  0.85547195  0.80077785    -0.16200
C898        C  0.20764556  0.85153744  0.80069805    -0.15900
C899        C  0.15048176  0.79725926  0.80109619    -0.16300
C900        C  0.15404226  0.85515188  0.78792107    -0.16300
C901        C  0.20672616  0.85131962  0.78788110    -0.15900
C902        C  0.15071134  0.79753790  0.78824833    -0.16200
C903        C  0.50172468  0.50088981  0.83156604     0.46500
H904        H  0.50260478  0.50236749  0.82121102    -0.02500
C905        C  0.49950641  0.49704661  0.85574077     0.46600
H906        H  0.49800140  0.49553903  0.86607428    -0.02500
C907        C  0.01977283  0.53578167  0.83826645    -0.16200
C908        C  0.46366617  0.98075562  0.83563359    -0.15900
C909        C  0.01781566  0.97903325  0.83557602    -0.16300
C910        C  0.01767197  0.53361864  0.85110634    -0.16300
C911        C  0.46284781  0.97859445  0.84846651    -0.15900
C912        C  0.01641952  0.97674590  0.84838485    -0.16200
C913        C  0.16499484  0.83098640  0.50058990     0.46500
H914        H  0.16749419  0.83178403  0.49026242    -0.02500
C915        C  0.15878889  0.82891923  0.52469546     0.46600
H916        H  0.15698992  0.82813994  0.53503201    -0.02500
C917        C  0.18288733  0.81266787  0.50711456    -0.16200
C918        C  0.18124816  0.86803143  0.50655558    -0.15900
C919        C  0.12681929  0.81109262  0.50525840    -0.16300
C920        C  0.17920171  0.81153001  0.51990323    -0.16300
C921        C  0.17767629  0.86651735  0.51934726    -0.15900
C922        C  0.12387370  0.81009248  0.51804738    -0.16200
C923        C  0.33029055  0.66530998  0.47744791     0.46500
H924        H  0.32940009  0.66516906  0.48780864    -0.02500
C925        C  0.33249975  0.66574980  0.45323076     0.46600
H926        H  0.33275475  0.66621428  0.44289404    -0.02500
C927        C  0.31343776  0.68530213  0.47140445    -0.16200
C928        C  0.36756722  0.68302164  0.47204168    -0.15900
C929        C  0.31125245  0.62808297  0.47174542    -0.16300
C930        C  0.31506094  0.68568292  0.45854693    -0.16300
C931        C  0.36855195  0.68375899  0.45920574    -0.15900
C932        C  0.31224592  0.62827441  0.45891829    -0.16200
O933        O  0.39111608  0.69448712  0.57618027    -0.77400
C934        C  0.30080354  0.59032451  0.57331523     0.83600
O935        O  0.29224072  0.70832952  0.58665666    -0.78500
O936        O  0.25472810  0.59946415  0.60917377    -0.80000
O937        O  0.37395912  0.64252060  0.61811934    -0.79800
O938        O  0.41671215  0.70125085  0.59458407    -0.78400
Zn939      Zn  0.33991788  0.66895873  0.57940981     1.55700
O940        O  0.32488347  0.59345355  0.61318451    -0.79800
Cd941      Cd  0.37419385  0.68119743  0.60667466     1.59700
Cd942      Cd  0.30420506  0.68736344  0.60222929     1.59600
O943        O  0.38005936  0.72175159  0.61821528    -0.79800
O944        O  0.32985020  0.66217857  0.59709265    -1.90300
Cd945      Cd  0.30073768  0.61030599  0.60060656     1.59900
O946        O  0.33459739  0.72897041  0.61415568    -0.79800
O947        O  0.29074492  0.58073016  0.58452023    -0.78400
C948        C  0.30163495  0.71007551  0.57528208     0.84100
C949        C  0.41830765  0.70500109  0.58275604     0.81900
O950        O  0.31956959  0.62275134  0.57029418    -0.77400
C951        C  0.35269591  0.60947719  0.61950290     0.84600
O952        O  0.31997463  0.69676575  0.57166724    -0.77500
C953        C  0.36289341  0.73778265  0.61987362     0.84700
C954        C  0.24343613  0.61889422  0.61368968     0.85000
O955        O  0.25919389  0.65244560  0.61201549    -0.79900
O956        O  0.01946063  0.54235743  0.73869345    -0.77400
C957        C  0.42460106  0.95123182  0.73296723     0.83600
O958        O  0.05023063  0.96210432  0.71648331    -0.78500
O959        O  0.44086447  0.93324625  0.69504538    -0.80000
O960        O  0.48596923  0.55612302  0.69742647    -0.79800
O961        O  0.03504676  0.58269731  0.72360948    -0.78400
Zn962      Zn  0.00279890  0.49607596  0.73028166     1.55700
O963        O  0.43722449  0.50361680  0.69701749    -0.79800
Cd964      Cd  0.02267692  0.55081828  0.70798893     1.59700
Cd965      Cd  0.02650578  0.97931411  0.70325820     1.59600
O966        O  0.06557962  0.56610973  0.69659035    -0.79800
O967        O  0.00074350  0.49960746  0.71248591    -1.90300
Cd968      Cd  0.45032195  0.97559622  0.70632941     1.59900
O969        O  0.06397608  0.51521094  0.69208817    -0.79800
O970        O  0.41741304  0.95398932  0.72164539    -0.78400
C971        C  0.04995410  0.96408267  0.72837888     0.84100
C972        C  0.03124625  0.57415226  0.73512528     0.83700
O973        O  0.45568037  0.96549972  0.73682992    -0.77400
C974        C  0.45478578  0.53631992  0.69392373     0.84600
O975        O  0.03394012  0.97747136  0.73394129    -0.77500
C976        C  0.07648676  0.54847812  0.69046926     0.84700
C977        C  0.46002436  0.92208638  0.69034208     0.85000
O978        O  0.49253245  0.93685638  0.69250912    -0.79900
C979        C  0.33208784  0.66503839  0.16651103     0.46500
H980        H  0.33242380  0.66403318  0.15615906    -0.02500
C981        C  0.33123381  0.66762705  0.19071740     0.46600
H982        H  0.33033747  0.66806706  0.20104197    -0.02500
C983        C  0.34793703  0.64457325  0.17289431    -0.16200
C984        C  0.35235325  0.70300234  0.17172985    -0.15900
C985        C  0.29529193  0.64930791  0.17206651    -0.16300
C986        C  0.34696431  0.64556624  0.18570621    -0.16300
C987        C  0.35195334  0.70426453  0.18455141    -0.15900
C988        C  0.29501488  0.65103109  0.18490584    -0.16200
C989        C  0.50069815  0.00095605  0.11959068     0.46500
H990        H  0.49902595  0.00085390  0.10926926    -0.02500
C991        C  0.50530472  0.00260572  0.14376487     0.46600
H992        H  0.50728998  0.00322457  0.15410081    -0.02500
C993        C  0.48367870  0.52064549  0.12550181    -0.16200
C994        C  0.48301893  0.96403908  0.12562809    -0.15900
C995        C  0.03987331  0.52081414  0.12452372    -0.16300
C996        C  0.48513504  0.52115983  0.13831726    -0.16300
C997        C  0.48538718  0.96474849  0.13842279    -0.15900
C998        C  0.04182587  0.52134108  0.13736595    -0.16200
O999        O  0.18727235  0.88203029  0.95495959    -0.77400
C1000       C  0.08903322  0.78580260  0.94769404     0.83600
O1001       O  0.22203604  0.80417818  0.93672727    -0.78500
O1002       O  0.11884275  0.76953344  0.90981902    -0.80000
O1003       O  0.15803402  0.89654206  0.91425854    -0.79800
O1004       O  0.20770292  0.92014324  0.93905838    -0.78400
Zn1005     Zn  0.16816748  0.83357462  0.94704595     1.55700
O1006       O  0.11052234  0.84380425  0.91164641    -0.79800
Cd1007     Cd  0.19253392  0.88736963  0.92386944     1.59700
Cd1008     Cd  0.20005599  0.81780929  0.92230723     1.59600
O1009       O  0.23483378  0.90247296  0.91228760    -0.79800
O1010       O  0.17033041  0.83667667  0.92892271    -1.90300
Cd1011     Cd  0.12241359  0.80959627  0.92155739     1.59900
O1012       O  0.23912205  0.85377967  0.91056548    -0.79800
O1013       O  0.08581946  0.78584959  0.93586698    -0.78400
C1014       C  0.21728113  0.80322474  0.94846766     0.84100
C1015       C  0.20270476  0.91362563  0.95067602     0.83700
O1016       O  0.11865135  0.80254506  0.95292740    -0.77400
C1017       C  0.12759128  0.87737022  0.91000482     0.84600
O1018       O  0.19714318  0.81291785  0.95337442    -0.77500
C1019       C  0.24922693  0.88597603  0.90773583     0.84700
C1020       C  0.14001441  0.75834004  0.90748995     0.85000
O1021       O  0.17057484  0.77311274  0.91194314    -0.79900
O1022       O  0.38455333  0.68566425  0.01930721    -0.77400
C1023       C  0.28593624  0.58791029  0.02685171     0.83600
O1024       O  0.30884543  0.72427533  0.03588926    -0.78500
O1025       O  0.26903247  0.62383346  0.06419018    -0.80000
O1026       O  0.38973070  0.65015530  0.06166704    -0.79800
O1027       O  0.42027129  0.69932196  0.03545860    -0.78400
Zn1028     Zn  0.33671905  0.66787029  0.02691437     1.55700
O1029       O  0.33476330  0.60617565  0.06307645    -0.79800
Cd1030     Cd  0.38714054  0.68799845  0.05062709     1.59700
Cd1031     Cd  0.32267607  0.70413891  0.05091846     1.59600
O1032       O  0.40561694  0.73426273  0.06080724    -0.79800
O1033       O  0.33821869  0.67062187  0.04505466    -1.90300
Cd1034     Cd  0.30638020  0.62284224  0.05257267     1.59900
O1035       O  0.36199581  0.74590577  0.06043544    -0.79800
O1036       O  0.28204213  0.58539113  0.03866355    -0.78400
C1037       C  0.30793814  0.71839750  0.02423417     0.84100
C1038       C  0.41490237  0.69713647  0.02374583     0.83700
O1039       O  0.30604811  0.61739397  0.02148295    -0.77400
C1040       C  0.36687945  0.61963725  0.06566078     0.84600
O1041       O  0.31736451  0.69739198  0.01972782    -0.77500
C1042       C  0.39258023  0.75361883  0.06367522     0.84700
C1043       C  0.26256827  0.64831858  0.06727774     0.85000
O1044       O  0.28035754  0.67975905  0.06299173    -0.79900
C1045       C  0.24884686  0.77473915  0.97753076     0.19800
C1046       C  0.24931456  0.78166759  0.99030588    -0.18300
C1047       C  0.26317306  0.76784908  0.99886982    -0.10600
C1048       C  0.27704170  0.74662223  0.99483086     0.22000
C1049       C  0.27663614  0.73975851  0.98202856    -0.20000
C1050       C  0.26266644  0.75352979  0.97345921    -0.10800
C1051       C  0.29103038  0.73008013  0.00355601    -0.15000
C1052       C  0.29533423  0.73655717  0.01588331    -0.28800
C1053       C  0.23211459  0.78871418  0.96898242    -0.03100
C1054       C  0.23558630  0.79021043  0.95649158    -0.39600
H1055       H  0.23855998  0.79763270  0.99371788     0.13200
H1056       H  0.26219701  0.77357870  0.00859193     0.12800
H1057       H  0.28679695  0.72325221  0.97863640     0.12200
H1058       H  0.26206936  0.74664400  0.96376075     0.12500
H1059       H  0.29788479  0.71136366  0.99961689     0.15200
H1060       H  0.28930664  0.75531366  0.02019851     0.14000
H1061       H  0.21626625  0.79850216  0.97324431     0.11700
H1062       H  0.25220035  0.78195706  0.95192719     0.13700
C1063       C  0.25557590  0.52483890  0.99850208     0.19800
C1064       C  0.26890214  0.52882892  0.98635839    -0.18300
C1065       C  0.25425965  0.00518120  0.97655257    -0.10600
C1066       C  0.22714854  0.97155416  0.98017047     0.22000
C1067       C  0.21390600  0.96684278  0.99235303    -0.20000
C1068       C  0.22790080  0.49156428  0.00218534    -0.10800
C1069       C  0.21291349  0.94068052  0.97163913    -0.15000
C1070       C  0.21566366  0.94408832  0.95915832    -0.28800
C1071       C  0.27152781  0.55632294  0.00678990    -0.03100
C1072       C  0.26701543  0.55554020  0.01924173    -0.39600
H1073       H  0.29036522  0.55400650  0.98327952     0.13200
H1074       H  0.26613695  0.00983426  0.96741816     0.12800
H1075       H  0.19310914  0.94120480  0.99538648     0.12200
H1076       H  0.21645604  0.48732900  0.01138126     0.12500
H1077       H  0.19924143  0.91432651  0.97576699     0.15200
H1078       H  0.22769672  0.97011600  0.95483306     0.14000
H1079       H  0.28920385  0.58155180  0.00237583     0.11700
H1080       H  0.25043593  0.53082480  0.02408730     0.13700
C1081       C  0.02840351  0.74751561  0.97666241     0.19800
C1082       C  0.53317912  0.74158943  0.98910810    -0.18300
C1083       C  0.50543779  0.72761521  0.99759139    -0.10600
C1084       C  0.47239698  0.72137497  0.99394390     0.22000
C1085       C  0.46771888  0.72833479  0.98150282    -0.20000
C1086       C  0.99376561  0.72762098  0.97260493    -0.10800
C1087       C  0.44224505  0.70786279  0.00273206    -0.15000
C1088       C  0.44510429  0.70880628  0.01526538    -0.28800
C1089       C  0.05894925  0.76435362  0.96802620    -0.03100
C1090       C  0.05733352  0.76616302  0.95549520    -0.39600
H1091       H  0.55840897  0.74659604  0.99224706     0.13200
H1092       H  0.51019290  0.72171631  0.00693425     0.12800
H1093       H  0.44259759  0.72373254  0.97839973     0.12200
H1094       H  0.98750172  0.72253200  0.96283575     0.12500
H1095       H  0.41667612  0.69813450  0.99868365     0.15200
H1096       H  0.47034992  0.71954603  0.01960638     0.14000
H1097       H  0.08442951  0.77721554  0.97234424     0.11700
H1098       H  0.03256008  0.75403425  0.95076103     0.13700
C1099       C  0.45620357  0.89717774  0.09871945     0.19800
C1100       C  0.47431620  0.88849115  0.08999233    -0.18300
C1101       C  0.45663536  0.85852904  0.08249774    -0.10600
C1102       C  0.42035244  0.83698954  0.08351812     0.22000
C1103       C  0.40217448  0.84637458  0.09197498    -0.20000
C1104       C  0.41986834  0.87605300  0.09954968    -0.10800
C1105       C  0.40039358  0.80525577  0.07567460    -0.15000
C1106       C  0.41376138  0.78587210  0.07103060    -0.28800
C1107       C  0.47550542  0.92917442  0.10648539    -0.03100
C1108       C  0.46534685  0.93115273  0.11811778    -0.39600
H1109       H  0.50223508  0.90480901  0.08903573     0.13200
H1110       H  0.47135076  0.85276142  0.07577925     0.12800
H1111       H  0.37416920  0.83055004  0.09277353     0.12200
H1112       H  0.40498093  0.88276375  0.10586913     0.12500
H1113       H  0.37307424  0.79651290  0.07420863     0.15200
H1114       H  0.44039467  0.79290369  0.07302033     0.14000
H1115       H  0.49930003  0.95098025  0.10269156     0.11700
H1116       H  0.44350253  0.90790682  0.12213873     0.13700
C1117       C  0.42136042  0.59033169  0.08510861     0.19800
C1118       C  0.44994375  0.60809208  0.09304513    -0.18300
C1119       C  0.46154096  0.58918804  0.10023916    -0.10600
C1120       C  0.44485623  0.55200139  0.09955476     0.22000
C1121       C  0.41687529  0.53431053  0.09136630    -0.20000
C1122       C  0.40509248  0.55319714  0.08424442    -0.10800
C1123       C  0.45668470  0.53108088  0.10694876    -0.15000
C1124       C  0.47202061  0.54169531  0.11809975    -0.28800
C1125       C  0.41019232  0.61144126  0.07749135    -0.03100
C1126       C  0.37746760  0.59855108  0.07341805    -0.39600
H1127       H  0.46330028  0.63671291  0.09370422     0.13200
H1128       H  0.48397172  0.60384847  0.10611914     0.12800
H1129       H  0.40399082  0.50575090  0.09051926     0.12200
H1130       H  0.38377020  0.53868061  0.07789783     0.12500
H1131       H  0.45084823  0.50531376  0.10343718     0.15200
H1132       H  0.47525979  0.56595605  0.12215534     0.14000
H1133       H  0.42935449  0.63888812  0.07551152     0.11700
H1134       H  0.35753866  0.57188706  0.07595439     0.13700
C1135       C  0.18430086  0.59875438  0.09009044     0.19800
C1136       C  0.16193042  0.56272538  0.09273772    -0.18300
C1137       C  0.13398689  0.55191153  0.10099401    -0.10600
C1138       C  0.12745093  0.57693307  0.10684746     0.22000
C1139       C  0.15024745  0.61306418  0.10447563    -0.20000
C1140       C  0.17829102  0.62395028  0.09615796    -0.10800
C1141       C  0.09801227  0.56599041  0.11582198    -0.15000
C1142       C  0.06921157  0.53383577  0.11545833    -0.28800
C1143       C  0.21380774  0.60829784  0.08124171    -0.03100
C1144       C  0.23378324  0.64062602  0.07610748    -0.39600
H1145       H  0.16612763  0.54269317  0.08840578     0.13200
H1146       H  0.11801448  0.52389064  0.10293317     0.12800
H1147       H  0.14625783  0.63294318  0.10903711     0.12200
H1148       H  0.19526628  0.65203095  0.09470680     0.12500
H1149       H  0.09989494  0.58488348  0.12280498     0.15200
H1150       H  0.06540828  0.51643500  0.10767839     0.14000
H1151       H  0.21885854  0.58716213  0.07861074     0.11700
H1152       H  0.22904262  0.66219322  0.07824390     0.13700
C1153       C  0.42799500  0.55922794  0.15118620     0.19800
C1154       C  0.39473807  0.55359499  0.14826849    -0.18300
C1155       C  0.38166959  0.57365142  0.15387290    -0.10600
C1156       C  0.40176019  0.60021933  0.16252388     0.22000
C1157       C  0.43475758  0.60544434  0.16561091    -0.20000
C1158       C  0.44785696  0.58542476  0.15999370    -0.10800
C1159       C  0.38898647  0.62199684  0.16896156    -0.15000
C1160       C  0.36089066  0.62432648  0.16553676    -0.28800
C1161       C  0.44134678  0.53864815  0.14424841    -0.03100
C1162       C  0.47155755  0.53922379  0.14656057    -0.39600
H1163       H  0.37876354  0.53363155  0.14153615     0.13200
H1164       H  0.35575565  0.56789686  0.15145391     0.12800
H1165       H  0.45072071  0.62544566  0.17233415     0.12200
H1166       H  0.47372799  0.59118369  0.16246014     0.12500
H1167       H  0.40383675  0.63725878  0.17694126     0.15200
H1168       H  0.34759961  0.61255515  0.15690304     0.14000
H1169       H  0.42554605  0.52249183  0.13657552     0.11700
H1170       H  0.48657337  0.55217926  0.15478058     0.13700
C1171       C  0.40790777  0.79834909  0.15897685     0.19800
C1172       C  0.44339174  0.82225172  0.15706129    -0.18300
C1173       C  0.45486816  0.85717968  0.15320256    -0.10600
C1174       C  0.43102926  0.86922127  0.15134007     0.22000
C1175       C  0.39554979  0.84534080  0.15330587    -0.20000
C1176       C  0.38407640  0.81041118  0.15714851    -0.10800
C1177       C  0.44169369  0.90516361  0.14622851    -0.15000
C1178       C  0.47449442  0.93257652  0.14627154    -0.28800
C1179       C  0.39711490  0.76236807  0.16406204    -0.03100
C1180       C  0.36441490  0.73488824  0.16362409    -0.39600
H1181       H  0.46234962  0.81381445  0.15852320     0.13200
H1182       H  0.48230924  0.87430397  0.15144425     0.12800
H1183       H  0.37657637  0.85377038  0.15186779     0.12200
H1184       H  0.35663909  0.79327386  0.15892620     0.12500
H1185       H  0.42184080  0.90878235  0.14163879     0.15200
H1186       H  0.49437765  0.93136567  0.15175620     0.14000
H1187       H  0.41650856  0.75890563  0.16907221     0.11700
H1188       H  0.34517101  0.73615811  0.15776405     0.13700
C1189       C  0.20241777  0.61203441  0.15921063     0.19800
C1190       C  0.17141360  0.60304387  0.16556863    -0.18300
C1191       C  0.13923113  0.57976873  0.16029801    -0.10600
C1192       C  0.13737784  0.56539620  0.14839402     0.22000
C1193       C  0.16842802  0.57462904  0.14200103    -0.20000
C1194       C  0.20062896  0.59778063  0.14730739    -0.10800
C1195       C  0.10382871  0.54132465  0.14220029    -0.15000
C1196       C  0.07396222  0.54088208  0.14484240    -0.28800
C1197       C  0.23592053  0.63523835  0.16552683    -0.03100
C1198       C  0.26427784  0.63199249  0.16389639    -0.39600
H1199       H  0.17211942  0.61340071  0.17480351     0.13200
H1200       H  0.11608076  0.57275777  0.16570183     0.12800
H1201       H  0.16775441  0.56422033  0.13277859     0.12200
H1202       H  0.22395513  0.60469435  0.14201327     0.12500
H1203       H  0.10430709  0.52528740  0.13455058     0.15200
H1204       H  0.07246020  0.55589911  0.15261385     0.14000
H1205       H  0.23611825  0.65280508  0.17273507     0.11700
H1206       H  0.26488114  0.61508125  0.15661550     0.13700
C1207       C  0.40240671  0.55166926  0.66848325     0.19800
C1208       C  0.38591291  0.53269316  0.65768095    -0.18300
C1209       C  0.37908030  0.54926997  0.64773248    -0.10600
C1210       C  0.38830834  0.58521919  0.64847298     0.22000
C1211       C  0.40383773  0.60382886  0.65942447    -0.20000
C1212       C  0.41049823  0.58725147  0.66936346    -0.10800
C1213       C  0.38300206  0.60464219  0.63803771    -0.15000
C1214       C  0.35950678  0.58885168  0.62893482    -0.28800
C1215       C  0.41235243  0.53422073  0.67835441    -0.03100
C1216       C  0.44001661  0.55274434  0.68573277    -0.39600
H1217       H  0.37935267  0.50526699  0.65676240     0.13200
H1218       H  0.36758488  0.53408813  0.63939205     0.12800
H1219       H  0.41086797  0.63140335  0.66030555     0.12200
H1220       H  0.42206129  0.60251124  0.67768765     0.12500
H1221       H  0.39771078  0.63342091  0.63829191     0.15200
H1222       H  0.34283390  0.56030525  0.62890594     0.14000
H1223       H  0.39905733  0.50544769  0.67866072     0.11700
H1224       H  0.45519854  0.58133412  0.68477149     0.13700
C1225       C  0.44284697  0.85728066  0.66369759     0.19800
C1226       C  0.44208172  0.86350224  0.65089946    -0.18300
C1227       C  0.42584431  0.83510700  0.64264296    -0.10600
C1228       C  0.41111444  0.80007567  0.64704872     0.22000
C1229       C  0.41254033  0.79392725  0.65983274    -0.20000
C1230       C  0.42775612  0.82230551  0.66814151    -0.10800
C1231       C  0.39626398  0.76977803  0.63836152    -0.15000
C1232       C  0.37634365  0.76775623  0.62862099    -0.28800
C1233       C  0.46029211  0.88754006  0.67227886    -0.03100
C1234       C  0.44360658  0.89090291  0.68217043    -0.39600
H1235       H  0.45382530  0.89035477  0.64732116     0.13200
H1236       H  0.42572622  0.84053217  0.63278472     0.12800
H1237       H  0.40170253  0.76712607  0.66338344     0.12200
H1238       H  0.42849661  0.81704667  0.67798447     0.12500
H1239       H  0.40086305  0.74790254  0.64030466     0.15200
H1240       H  0.36893830  0.78788794  0.62727918     0.14000
H1241       H  0.48621365  0.90871961  0.66987841     0.11700
H1242       H  0.41645310  0.87145989  0.68378048     0.13700
C1243       C  0.17869287  0.60184169  0.64034946     0.19800
C1244       C  0.18312172  0.62033712  0.65150718    -0.18300
C1245       C  0.16086087  0.60418735  0.66167010    -0.10600
C1246       C  0.13317749  0.56914793  0.66082910     0.22000
C1247       C  0.12836787  0.55084205  0.64958861    -0.20000
C1248       C  0.15068779  0.56699398  0.63942443    -0.10800
C1249       C  0.10908220  0.55061764  0.67144342    -0.15000
C1250       C  0.10365062  0.56754332  0.68092295    -0.28800
C1251       C  0.20466380  0.61943012  0.63016597    -0.03100
C1252       C  0.21209846  0.60144053  0.62167279    -0.39600
H1253       H  0.20454286  0.64713628  0.65249456     0.13200
H1254       H  0.16606911  0.61903972  0.67021617     0.12800
H1255       H  0.10714224  0.52392035  0.64864864     0.12200
H1256       H  0.14579501  0.55211284  0.63089313     0.12500
H1257       H  0.09349894  0.52191234  0.67100586     0.15200
H1258       H  0.11691364  0.59624896  0.68110425     0.14000
H1259       H  0.22103534  0.64805787  0.63057501     0.11700
H1260       H  0.19781123  0.57270366  0.62168956     0.13700
C1261       C  0.26071734  0.50095989  0.55604528     0.19800
C1262       C  0.23507092  0.96952112  0.55912972    -0.18300
C1263       C  0.22283602  0.94270176  0.55025477    -0.10600
C1264       C  0.23777089  0.94933783  0.53825834     0.22000
C1265       C  0.26618121  0.98277925  0.53553919    -0.20000
C1266       C  0.27502582  0.50755762  0.54391558    -0.10800
C1267       C  0.22450016  0.92163410  0.52853959    -0.15000
C1268       C  0.19091708  0.89651802  0.52806059    -0.28800
C1269       C  0.27231426  0.52870037  0.56578640    -0.03100
C1270       C  0.29068827  0.56366032  0.56339936    -0.39600
H1271       H  0.22280068  0.96379574  0.56824309     0.13200
H1272       H  0.20189998  0.91674959  0.55288130     0.12800
H1273       H  0.27353543  0.48621490  0.52575695     0.12200
H1274       H  0.29602231  0.53329505  0.54117832     0.12500
H1275       H  0.24248099  0.92222074  0.52151451     0.15200
H1276       H  0.17268032  0.89557149  0.53501559     0.14000
H1277       H  0.26430000  0.51989002  0.57533759     0.11700
H1278       H  0.29825167  0.57346587  0.55394873     0.13700
C1279       C  0.48914778  0.74471912  0.55704964     0.19800
C1280       C  0.99028344  0.74399035  0.54480262    -0.18300
C1281       C  0.02076499  0.76060089  0.53772036    -0.10600
C1282       C  0.05300438  0.78120252  0.54354581     0.22000
C1283       C  0.05397542  0.78513505  0.55654659    -0.20000
C1284       C  0.02344108  0.76842868  0.56365202    -0.10800
C1285       C  0.08584196  0.80037942  0.53633618    -0.15000
C1286       C  0.09062741  0.79006965  0.52504224    -0.28800
C1287       C  0.45570134  0.72705854  0.56405084    -0.03100
C1288       C  0.45262957  0.72212487  0.57651983    -0.39600
H1289       H  0.96577763  0.72848781  0.54004647     0.13200
H1290       H  0.01874822  0.75795444  0.52768759     0.12800
H1291       H  0.07848230  0.80130671  0.56122148     0.12200
H1292       H  0.52374610  0.76747292  0.57290491     0.12500
H1293       H  0.10678607  0.82388194  0.54058087     0.15200
H1294       H  0.06997763  0.76640528  0.52079936     0.14000
H1295       H  0.43219329  0.71737543  0.55855051     0.11700
H1296       H  0.47527117  0.73046522  0.58234001     0.13700
C1297       C  0.23859154  0.79013170  0.53992065     0.19800
C1298       C  0.26731852  0.78579622  0.53755225    -0.18300
C1299       C  0.27924540  0.77135086  0.54666207    -0.10600
C1300       C  0.26256710  0.76090831  0.55838515     0.22000
C1301       C  0.23478060  0.76672426  0.56090909    -0.20000
C1302       C  0.22289145  0.78117217  0.55180767    -0.10800
C1303       C  0.27346544  0.74422590  0.56822780    -0.15000
C1304       C  0.29139210  0.72754490  0.56570813    -0.28800
C1305       C  0.22588791  0.80452072  0.52992780    -0.03100
C1306       C  0.19235732  0.79567376  0.52909486    -0.39600
H1307       H  0.28027538  0.79316098  0.52856258     0.13200
H1308       H  0.30169501  0.76881664  0.54446454     0.12800
H1309       H  0.22193426  0.75967847  0.56992008     0.12200
H1310       H  0.20162571  0.78557446  0.55417987     0.12500
H1311       H  0.26520880  0.74438023  0.57776719     0.15200
H1312       H  0.29857834  0.72578389  0.55617763     0.14000
H1313       H  0.24422874  0.82194492  0.52291851     0.11700
H1314       H  0.17379820  0.77835119  0.53603835     0.13700
C1315       C  0.26705824  0.53138429  0.48434079     0.19800
C1316       C  0.27443810  0.50360694  0.48345813    -0.18300
C1317       C  0.23861295  0.96714055  0.48261570    -0.10600
C1318       C  0.22476098  0.96569744  0.49457058     0.22000
C1319       C  0.23257004  0.99768276  0.50039120    -0.20000
C1320       C  0.23739667  0.52559792  0.49108911    -0.10800
C1321       C  0.20219823  0.93175735  0.50134977    -0.15000
C1322       C  0.20096853  0.90078945  0.49883996    -0.28800
C1323       C  0.28956720  0.56492156  0.47739687    -0.03100
C1324       C  0.29095817  0.59602477  0.47970522    -0.39600
H1325       H  0.29709033  0.50730156  0.47833387     0.13200
H1326       H  0.23277002  0.94329117  0.47762804     0.12800
H1327       H  0.22248055  0.99744055  0.50962548     0.12200
H1328       H  0.23027101  0.54596939  0.49176507     0.12500
H1329       H  0.18701081  0.93281296  0.50911127     0.15200
H1330       H  0.21493953  0.89868429  0.49089618     0.14000
H1331       H  0.30577484  0.56391915  0.46997394     0.11700
H1332       H  0.27801477  0.59886494  0.48784401     0.13700
C1333       C  0.46362007  0.72526487  0.48287879     0.19800
C1334       C  0.99247027  0.71935007  0.48098893    -0.18300
C1335       C  0.02583211  0.74148709  0.48570730    -0.10600
C1336       C  0.03307996  0.77202918  0.49247919     0.22000
C1337       C  0.00612027  0.77966538  0.49439275    -0.20000
C1338       C  0.46905144  0.75044394  0.49207941    -0.10800
C1339       C  0.06708403  0.79475150  0.49870240    -0.15000
C1340       C  0.09649540  0.79343153  0.49668547    -0.28800
C1341       C  0.42899372  0.70173810  0.47714862    -0.03100
C1342       C  0.39904618  0.70114911  0.48008700    -0.39600
H1343       H  0.98771144  0.69611571  0.47575895     0.13200
H1344       H  0.04547560  0.73406222  0.48423338     0.12800
H1345       H  0.01083194  0.80288250  0.49962487     0.12200
H1346       H  0.44787332  0.75318435  0.49579712     0.12500
H1347       H  0.06744181  0.81249559  0.50588304     0.15200
H1348       H  0.09860220  0.77889773  0.48886559     0.14000
H1349       H  0.42855492  0.68536975  0.46944228     0.11700
H1350       H  0.39715693  0.71460014  0.48826782     0.13700
C1351       C  0.27465849  0.74201988  0.48394298     0.19800
C1352       C  0.26402201  0.76349787  0.47774800    -0.18300
C1353       C  0.24210083  0.77361391  0.48363576    -0.10600
C1354       C  0.23066554  0.76280527  0.49597831     0.22000
C1355       C  0.24164561  0.74163502  0.50220580    -0.20000
C1356       C  0.26348042  0.73144992  0.49630500    -0.10800
C1357       C  0.20712765  0.77256462  0.50267697    -0.15000
C1358       C  0.20399082  0.80101709  0.49977056    -0.28800
C1359       C  0.29681618  0.73075202  0.47712542    -0.03100
C1360       C  0.29556805  0.69961113  0.47927496    -0.39600
H1361       H  0.27207244  0.77181534  0.46819619     0.13200
H1362       H  0.23369621  0.78920473  0.47836055     0.12800
H1363       H  0.23349332  0.73314510  0.51173673     0.12200
H1364       H  0.27179783  0.71564803  0.50150890     0.12500
H1365       H  0.19279986  0.75624840  0.51061590     0.15200
H1366       H  0.21729678  0.81701742  0.49166005     0.14000
H1367       H  0.31268722  0.74744360  0.46948735     0.11700
H1368       H  0.28047155  0.68307749  0.48705441     0.13700
C1369       C  0.37373474  0.94182577  0.86484814     0.19800
C1370       C  0.35227014  0.95590712  0.86781529    -0.18300
C1371       C  0.32552533  0.93911157  0.87660560    -0.10600
C1372       C  0.31964826  0.90767169  0.88258678     0.22000
C1373       C  0.34012513  0.89275988  0.87917114    -0.20000
C1374       C  0.36684504  0.90955687  0.87040178    -0.10800
C1375       C  0.29182177  0.88905837  0.89209373    -0.15000
C1376       C  0.27797138  0.90516199  0.89876548    -0.28800
C1377       C  0.40308984  0.96124662  0.85597955    -0.03100
C1378       C  0.43202283  0.95878982  0.85662123    -0.39600
H1379       H  0.35656287  0.98029195  0.86346557     0.13200
H1380       H  0.30939795  0.95070958  0.87854035     0.12800
H1381       H  0.33564293  0.86815491  0.88339252     0.12200
H1382       H  0.38187123  0.89704411  0.86794905     0.12500
H1383       H  0.28284708  0.86116858  0.89380601     0.15200
H1384       H  0.28732441  0.93323533  0.89751984     0.14000
H1385       H  0.40173413  0.97927210  0.84925595     0.11700
H1386       H  0.43506269  0.94407305  0.86423950     0.13700
C1387       C  0.06911181  0.89979450  0.88991903     0.19800
C1388       C  0.04797749  0.88417075  0.87951236    -0.18300
C1389       C  0.03696891  0.90335609  0.87215353    -0.10600
C1390       C  0.04689856  0.93867707  0.87512523     0.22000
C1391       C  0.06681291  0.95367947  0.88584218    -0.20000
C1392       C  0.07774323  0.93452576  0.89317983    -0.10800
C1393       C  0.03676600  0.96074524  0.86753375    -0.15000
C1394       C  0.02552061  0.95343717  0.85571640    -0.28800
C1395       C  0.08204167  0.87953743  0.89716261    -0.03100
C1396       C  0.11271627  0.89589218  0.90304824    -0.39600
H1397       H  0.04046517  0.85724699  0.87694452     0.13200
H1398       H  0.02056386  0.89020439  0.86425814     0.12800
H1399       H  0.07423823  0.98051865  0.88850707     0.12200
H1400       H  0.09277843  0.94699270  0.90143596     0.12500
H1401       H  0.03533900  0.48228918  0.87423085     0.15200
H1402       H  0.02370190  0.93048133  0.85110853     0.14000
H1403       H  0.06716331  0.85077183  0.89704418     0.11700
H1404       H  0.12868252  0.92451792  0.90244996     0.13700
C1405       C  0.07067779  0.62257722  0.86838009     0.19800
C1406       C  0.10575392  0.64502821  0.87122181    -0.18300
C1407       C  0.11572627  0.67387024  0.87918428    -0.10600
C1408       C  0.09067007  0.68093692  0.88447988     0.22000
C1409       C  0.05569317  0.65904565  0.88132307    -0.20000
C1410       C  0.04574570  0.63021745  0.87337495    -0.10800
C1411       C  0.10001795  0.71141032  0.89296056    -0.15000
C1412       C  0.12994072  0.72747659  0.89935051    -0.28800
C1413       C  0.06094902  0.59242075  0.85975656    -0.03100
C1414       C  0.02930393  0.56342470  0.85996385    -0.39600
H1415       H  0.12552118  0.64020753  0.86727639     0.13200
H1416       H  0.14313205  0.69081418  0.88091115     0.12800
H1417       H  0.03593560  0.66424074  0.88503591     0.12200
H1418       H  0.01857891  0.61443647  0.87098888     0.12500
H1419       H  0.08133945  0.72044654  0.89416419     0.15200
H1420       H  0.14831734  0.71798388  0.89864673     0.14000
H1421       H  0.08028662  0.59391009  0.85316807     0.11700
H1422       H  0.01124256  0.55993338  0.86740709     0.13700
C1423       C  0.28388157  0.86675957  0.76748028     0.19800
C1424       C  0.31579418  0.86824327  0.76931693    -0.18300
C1425       C  0.34151387  0.88250638  0.76008298    -0.10600
C1426       C  0.33560040  0.89547572  0.74882361     0.22000
C1427       C  0.30286301  0.89182106  0.74669657    -0.20000
C1428       C  0.27721486  0.87761089  0.75591574    -0.10800
C1429       C  0.36307890  0.91352637  0.73922785    -0.15000
C1430       C  0.39689044  0.93141033  0.74216340    -0.28800
C1431       C  0.25783236  0.85383671  0.77768024    -0.03100
C1432       C  0.23634222  0.86685324  0.77917959    -0.39600
H1433       H  0.32113727  0.85920981  0.77802746     0.13200
H1434       H  0.36593508  0.88339866  0.76182794     0.12800
H1435       H  0.29740820  0.90083502  0.73800258     0.12200
H1436       H  0.25222522  0.87523516  0.75396170     0.12500
H1437       H  0.35522737  0.91410989  0.72967639     0.15200
H1438       H  0.40493256  0.93245579  0.75177378     0.14000
H1439       H  0.25653927  0.83385818  0.78412436     0.11700
H1440       H  0.23768157  0.88709038  0.77288248     0.13700
C1441       C  0.09900674  0.91843827  0.74163126     0.19800
C1442       C  0.10976641  0.93256844  0.75366245    -0.18300
C1443       C  0.12034776  0.91586913  0.76237033    -0.10600
C1444       C  0.12103899  0.88485942  0.75920992     0.22000
C1445       C  0.11180252  0.87173885  0.74701557    -0.20000
C1446       C  0.10108931  0.88840990  0.73831683    -0.10800
C1447       C  0.13073653  0.86499931  0.76820548    -0.15000
C1448       C  0.14320470  0.87584337  0.77980093    -0.28800
C1449       C  0.08435961  0.93367242  0.73258198    -0.03100
C1450       C  0.06773486  0.95063607  0.73649099    -0.39600
H1451       H  0.11001729  0.95655976  0.75645197     0.13200
H1452       H  0.12742769  0.92732935  0.77154454     0.12800
H1453       H  0.11242388  0.84814058  0.74423605     0.12200
H1454       H  0.09340484  0.87717689  0.72909390     0.12500
H1455       H  0.12704584  0.83968974  0.76503913     0.15200
H1456       H  0.14628468  0.90037073  0.78345921     0.14000
H1457       H  0.08495167  0.92861846  0.72269569     0.11700
H1458       H  0.06519013  0.95356890  0.74641825     0.13700
C1459       C  0.06031387  0.66205655  0.75205638     0.19800
C1460       C  0.08345892  0.69735167  0.74882631    -0.18300
C1461       C  0.09629048  0.72350950  0.75793327    -0.10600
C1462       C  0.08608271  0.71481999  0.77047589     0.22000
C1463       C  0.06132921  0.67995618  0.77362318    -0.20000
C1464       C  0.04853522  0.65367345  0.76449601    -0.10800
C1465       C  0.10131715  0.74190632  0.78032373    -0.15000
C1466       C  0.13487603  0.76696113  0.77981447    -0.28800
C1467       C  0.04952843  0.63478261  0.74224416    -0.03100
C1468       C  0.04043985  0.60107500  0.74483027    -0.39600
H1469       H  0.09233053  0.70456866  0.73928038     0.13200
H1470       H  0.11430254  0.75053432  0.75514412     0.12800
H1471       H  0.05262189  0.67291460  0.78319289     0.12200
H1472       H  0.02954283  0.62694733  0.76722858     0.12500
H1473       H  0.08508978  0.74104174  0.78807294     0.15200
H1474       H  0.15093443  0.76760734  0.77204866     0.14000
H1475       H  0.05121506  0.64314324  0.73257844     0.11700
H1476       H  0.03999233  0.59264558  0.75440007     0.13700
C1477       C  0.09944612  0.89741254  0.81236049     0.19800
C1478       C  0.06890883  0.89604108  0.80804867    -0.18300
C1479       C  0.05614872  0.91641957  0.81357714    -0.10600
C1480       C  0.07381176  0.93897008  0.82359894     0.22000
C1481       C  0.10435125  0.94034242  0.82791595    -0.20000
C1482       C  0.11711640  0.91996074  0.82238716    -0.10800
C1483       C  0.06075958  0.96009217  0.83030043    -0.15000
C1484       C  0.03189128  0.96149845  0.82735323    -0.28800
C1485       C  0.11218535  0.87589113  0.80574687    -0.03100
C1486       C  0.14112400  0.87459947  0.80863998    -0.39600
H1487       H  0.05476850  0.87907860  0.80031243     0.13200
H1488       H  0.03234654  0.91396251  0.80998052     0.12800
H1489       H  0.11842820  0.95722881  0.83567630     0.12200
H1490       H  0.14083658  0.92231262  0.82602331     0.12500
H1491       H  0.07529548  0.97454800  0.83845666     0.15200
H1492       H  0.01814009  0.95022681  0.81875900     0.14000
H1493       H  0.09701071  0.86058591  0.79782755     0.11700
H1494       H  0.15552477  0.88683345  0.81703520     0.13700
C1495       C  0.30450248  0.90180594  0.81151369     0.19800
C1496       C  0.33547375  0.92710396  0.80566385    -0.18300
C1497       C  0.36785534  0.93796969  0.81112938    -0.10600
C1498       C  0.37010479  0.92382797  0.82267957     0.22000
C1499       C  0.33924024  0.89811227  0.82844234    -0.20000
C1500       C  0.30682793  0.88727395  0.82298896    -0.10800
C1501       C  0.40370772  0.93546599  0.82921558    -0.15000
C1502       C  0.43266057  0.96709723  0.82737832    -0.28800
C1503       C  0.27087095  0.89140719  0.80512536    -0.03100
C1504       C  0.23960949  0.86384524  0.80841042    -0.39600
H1505       H  0.33465767  0.93846855  0.79674764     0.13200
H1506       H  0.39091727  0.95715898  0.80619571     0.12800
H1507       H  0.34015256  0.88679381  0.83735813     0.12200
H1508       H  0.28392417  0.86789478  0.82792586     0.12500
H1509       H  0.40375467  0.91827958  0.83657881     0.15200
H1510       H  0.43398991  0.98440068  0.81984440     0.14000
H1511       H  0.27230109  0.90708034  0.79702503     0.11700
H1512       H  0.23667706  0.84900782  0.81688727     0.13700
C1513       C  0.10668305  0.69991907  0.81386362     0.19800
C1514       C  0.10503067  0.66864965  0.80955009    -0.18300
C1515       C  0.08401293  0.63603828  0.81549307    -0.10600
C1516       C  0.06386210  0.63368763  0.82601913     0.22000
C1517       C  0.06563522  0.66499387  0.83038067    -0.20000
C1518       C  0.08664957  0.69764482  0.82441612    -0.10800
C1519       C  0.04109702  0.59967865  0.83286118    -0.15000
C1520       C  0.03999605  0.56861338  0.83061355    -0.28800
C1521       C  0.12853961  0.73354442  0.80670455    -0.03100
C1522       C  0.13159145  0.76532374  0.80931177    -0.39600
H1523       H  0.11987961  0.66933683  0.80141149     0.13200
H1524       H  0.08368714  0.61300036  0.81163962     0.12800
H1525       H  0.05064126  0.66422975  0.83848593     0.12200
H1526       H  0.08672155  0.72070310  0.82813585     0.12500
H1527       H  0.02503056  0.60054250  0.84035162     0.15200
H1528       H  0.05385400  0.56602834  0.82274810     0.14000
H1529       H  0.14232970  0.73173874  0.79861869     0.11700
H1530       H  0.12055762  0.76900456  0.81779882     0.13700
C1531       C  0.41402150  0.83426188  0.22588797     0.19800
C1532       C  0.43182224  0.82538063  0.21708520    -0.18300
C1533       C  0.41404542  0.79542216  0.20964493    -0.10600
C1534       C  0.37785731  0.77349706  0.21084926     0.22000
C1535       C  0.36007407  0.78188689  0.21983568    -0.20000
C1536       C  0.37789176  0.81205220  0.22726332    -0.10800
C1537       C  0.35847959  0.74088333  0.20329406    -0.15000
C1538       C  0.36914090  0.73766347  0.19186826    -0.28800
C1539       C  0.43447678  0.86606214  0.23371601    -0.03100
C1540       C  0.42102323  0.88393755  0.23953077    -0.39600
H1541       H  0.45970439  0.84167591  0.21597612     0.13200
H1542       H  0.42894419  0.78912457  0.20318981     0.12800
H1543       H  0.33231744  0.76504824  0.22110788     0.12200
H1544       H  0.36338854  0.81734681  0.23421562     0.12500
H1545       H  0.33443080  0.71957483  0.20712274     0.15200
H1546       H  0.39129492  0.76044821  0.18780614     0.14000
H1547       H  0.46227968  0.87605438  0.23427311     0.11700
H1548       H  0.39369527  0.87566578  0.23860558     0.13700
C1549       C  0.37800583  0.61234221  0.21362185     0.19800
C1550       C  0.40467999  0.62989895  0.22231067    -0.18300
C1551       C  0.41573284  0.61097327  0.22975001    -0.10600
C1552       C  0.40002740  0.57392394  0.22872223     0.22000
C1553       C  0.37217379  0.55615243  0.22048875    -0.20000
C1554       C  0.36132329  0.57513236  0.21294949    -0.10800
C1555       C  0.41228042  0.55335170  0.23612388    -0.15000
C1556       C  0.44596959  0.56668774  0.23897135    -0.28800
C1557       C  0.36821124  0.63364611  0.20548841    -0.03100
C1558       C  0.35511423  0.62327864  0.19400923    -0.39600
H1559       H  0.41747790  0.65845173  0.22317628     0.13200
H1560       H  0.43646593  0.62538464  0.23633279     0.12800
H1561       H  0.35926361  0.52757872  0.21970355     0.12200
H1562       H  0.33978971  0.56057778  0.20668622     0.12500
H1563       H  0.39368045  0.52611000  0.23861366     0.15200
H1564       H  0.46490521  0.59298618  0.23566646     0.14000
H1565       H  0.37448969  0.65984229  0.20866699     0.11700
H1566       H  0.35144675  0.59843794  0.19036069     0.13700
C1567       C  0.20394226  0.59889012  0.20027129     0.19800
C1568       C  0.17883418  0.56299990  0.20151858    -0.18300
C1569       C  0.15028650  0.55238314  0.20948084    -0.10600
C1570       C  0.14624968  0.57761647  0.21638493     0.22000
C1571       C  0.17042655  0.61363491  0.21462854    -0.20000
C1572       C  0.19891164  0.62423428  0.20665688    -0.10800
C1573       C  0.11725170  0.56762552  0.22541337    -0.15000
C1574       C  0.09928654  0.53526750  0.23067374    -0.28800
C1575       C  0.23451874  0.60902541  0.19203614    -0.03100
C1576       C  0.26434309  0.63993222  0.19313412    -0.39600
H1577       H  0.18154944  0.54303161  0.19643427     0.13200
H1578       H  0.13148430  0.52445593  0.21009001     0.12800
H1579       H  0.16752987  0.63368747  0.21957843     0.12200
H1580       H  0.21669894  0.65229466  0.20549109     0.12500
H1581       H  0.11156607  0.58817108  0.22826475     0.15200
H1582       H  0.10540631  0.51473205  0.22836734     0.14000
H1583       H  0.23279449  0.59014238  0.18507575     0.11700
H1584       H  0.26790796  0.65716148  0.20094065     0.13700
C1585       C  0.09002178  0.89774420  0.33110053     0.19800
C1586       C  0.09434625  0.89291644  0.31840268    -0.18300
C1587       C  0.08452487  0.90883159  0.30915199    -0.10600
C1588       C  0.06982859  0.92979436  0.31243470     0.22000
C1589       C  0.06555598  0.93468630  0.32512223    -0.20000
C1590       C  0.07535424  0.91875421  0.33437505    -0.10800
C1591       C  0.05865779  0.94727278  0.30308949    -0.15000
C1592       C  0.05342233  0.93899683  0.29087629    -0.28800
C1593       C  0.10156645  0.88051583  0.34043181    -0.03100
C1594       C  0.10422059  0.88659342  0.35283166    -0.39600
H1595       H  0.10573276  0.87698744  0.31560418     0.13200
H1596       H  0.08897033  0.90492569  0.29952392     0.12800
H1597       H  0.05426805  0.95071607  0.32790743     0.12200
H1598       H  0.07110017  0.92291545  0.34399080     0.12500
H1599       H  0.05275043  0.96703723  0.30667631     0.15200
H1600       H  0.05799675  0.91874898  0.28695059     0.14000
H1601       H  0.10973835  0.86259630  0.33670032     0.11700
H1602       H  0.09686952  0.90454868  0.35701650     0.13700
C1603       C  0.07652989  0.63806817  0.31165035     0.19800
C1604       C  0.05958368  0.63150342  0.32323117    -0.18300
C1605       C  0.07043636  0.65817075  0.33211030    -0.10600
C1606       C  0.09890472  0.69188643  0.32960934     0.22000
C1607       C  0.11599238  0.69841555  0.31805011    -0.20000
C1608       C  0.10506224  0.67171674  0.30914259    -0.10800
C1609       C  0.11080775  0.72124972  0.33859784    -0.15000
C1610       C  0.10507754  0.71658791  0.35096857    -0.28800
C1611       C  0.06373349  0.60877075  0.30262857    -0.03100
C1612       C  0.06835477  0.61296208  0.29018247    -0.39600
H1613       H  0.03746182  0.60573975  0.32534736     0.13200
H1614       H  0.05599972  0.65240224  0.34076138     0.12800
H1615       H  0.13802247  0.72423489  0.31593605     0.12200
H1616       H  0.11923430  0.67742515  0.30043154     0.12500
H1617       H  0.12619656  0.74795879  0.33487008     0.15200
H1618       H  0.09175446  0.69025326  0.35507079     0.14000
H1619       H  0.04778348  0.58228701  0.30647203     0.11700
H1620       H  0.08273799  0.63909656  0.28597293     0.13700
C1621       C  0.35394143  0.93037684  0.31206804     0.19800
C1622       C  0.32124386  0.92785476  0.31231484    -0.18300
C1623       C  0.30106075  0.91715908  0.32318329    -0.10600
C1624       C  0.31281382  0.90783170  0.33400197     0.22000
C1625       C  0.34561283  0.91054698  0.33378039    -0.20000
C1626       C  0.36587808  0.92139151  0.32291267    -0.10800
C1627       C  0.29113017  0.89483921  0.34551739    -0.15000
C1628       C  0.25638318  0.87683277  0.34485103    -0.28800
C1629       C  0.37498444  0.94228563  0.30040116    -0.03100
C1630       C  0.40978896  0.96022082  0.30069452    -0.39600
H1631       H  0.31153677  0.93476024  0.30413362     0.13200
H1632       H  0.27643844  0.91665535  0.32308972     0.12800
H1633       H  0.35524673  0.90350727  0.34194885     0.12200
H1634       H  0.39056639  0.92203017  0.32298480     0.12500
H1635       H  0.30374484  0.89896241  0.35451285     0.15200
H1636       H  0.24410229  0.87114482  0.33576121     0.14000
H1637       H  0.36170863  0.93730447  0.29150994     0.11700
H1638       H  0.42288166  0.96681872  0.30963882     0.13700
C1639       C  0.27913411  0.56043351  0.43199690     0.19800
C1640       C  0.29579061  0.55042543  0.42309062    -0.18300
C1641       C  0.27756880  0.01668100  0.41671979    -0.10600
C1642       C  0.24109909  0.99667123  0.41784348     0.22000
C1643       C  0.22377554  0.50983538  0.42599275    -0.20000
C1644       C  0.24277249  0.54015500  0.43321729    -0.10800
C1645       C  0.21961939  0.96334878  0.41071496    -0.15000
C1646       C  0.23242040  0.94382871  0.40567867    -0.28800
C1647       C  0.30030753  0.59245555  0.43966433    -0.03100
C1648       C  0.29082851  0.59640464  0.45120053    -0.39600
H1649       H  0.32366580  0.56599582  0.42178374     0.13200
H1650       H  0.29164077  0.00880775  0.41047654     0.12800
H1651       H  0.19584379  0.49457571  0.42718395     0.12200
H1652       H  0.22882710  0.54779244  0.43963189     0.12500
H1653       H  0.19205511  0.95421032  0.40979143     0.15200
H1654       H  0.25953050  0.95163350  0.40692081     0.14000
H1655       H  0.32542462  0.61229872  0.43600643     0.11700
H1656       H  0.26708163  0.57535278  0.45527986     0.13700
C1657       C  0.00071000  0.76695347  0.41885188     0.19800
C1658       C  0.99178195  0.78241563  0.42855778    -0.18300
C1659       C  0.45930030  0.75969287  0.43557629    -0.10600
C1660       C  0.43630616  0.72402057  0.43251180     0.22000
C1661       C  0.44366965  0.70958376  0.42207074    -0.20000
C1662       C  0.47418398  0.72952634  0.41523115    -0.10800
C1663       C  0.40440640  0.70101374  0.43986236    -0.15000
C1664       C  0.40041772  0.70709692  0.45185048    -0.28800
C1665       C  0.03420757  0.78791065  0.41217003    -0.03100
C1666       C  0.05164788  0.77231416  0.40782869    -0.39600
H1667       H  0.00886543  0.80986122  0.43101641     0.13200
H1668       H  0.45385707  0.77239295  0.44320776     0.12800
H1669       H  0.42603548  0.68251615  0.41931851     0.12200
H1670       H  0.98288316  0.71924272  0.40782157     0.12500
H1671       H  0.38459149  0.67700880  0.43547338     0.15200
H1672       H  0.42111375  0.72976087  0.45651369     0.14000
H1673       H  0.04491215  0.81630441  0.41106104     0.11700
H1674       H  0.04165193  0.74427784  0.40961201     0.13700
C1675       C  0.24924785  0.76304272  0.42339490     0.19800
C1676       C  0.28410407  0.77393176  0.42582675    -0.18300
C1677       C  0.29287455  0.75585585  0.43458735    -0.10600
C1678       C  0.26679928  0.72629067  0.44109995     0.22000
C1679       C  0.23198436  0.71645913  0.43909169    -0.20000
C1680       C  0.22322257  0.73460159  0.43035324    -0.10800
C1681       C  0.27510902  0.70571018  0.45018506    -0.15000
C1682       C  0.30524794  0.70556104  0.44978534    -0.28800
C1683       C  0.24076876  0.78229841  0.41380488    -0.03100
C1684       C  0.21080977  0.76639025  0.40749504    -0.39600
H1685       H  0.30461926  0.79628362  0.42083824     0.13200
H1686       H  0.32012225  0.76548051  0.43628943     0.12800
H1687       H  0.21146897  0.69444332  0.44421089     0.12200
H1688       H  0.19606431  0.72646874  0.42919776     0.12500
H1689       H  0.25567329  0.68950461  0.45711197     0.15200
H1690       H  0.32299991  0.71820984  0.44203818     0.14000
H1691       H  0.25959091  0.80984944  0.41182541     0.11700
H1692       H  0.19256095  0.73851806  0.40913871     0.13700
O1693       O  0.70224767  0.35889911  0.35296623    -0.77400
C1694       C  0.62196965  0.25281547  0.35837453     0.83600
O1695       O  0.62144892  0.37921171  0.37307593    -0.78500
O1696       O  0.59480772  0.27410100  0.39526978    -0.80000
O1697       O  0.72042856  0.31880113  0.39454157    -0.79800
O1698       O  0.74363219  0.36862789  0.36665692    -0.78400
Zn1699     Zn  0.65690198  0.33235647  0.36128412     1.55700
O1700       O  0.66718237  0.27148743  0.39547151    -0.79800
Cd1701     Cd  0.71300335  0.35391524  0.38309894     1.59700
Cd1702     Cd  0.64148724  0.36022046  0.38682879     1.59600
O1703       O  0.72813346  0.39971422  0.39328911    -0.79800
O1704       O  0.66231239  0.33292854  0.37897738    -1.90300
Cd1705     Cd  0.63643095  0.28275826  0.38455027     1.59900
O1706       O  0.68013941  0.40336943  0.39656333    -0.79800
O1707       O  0.61954341  0.24691834  0.37005073    -0.78400
C1708       C  0.61797344  0.37292026  0.36140656     0.84100
C1709       C  0.73386051  0.37020199  0.35556855     0.83700
O1710       O  0.63531037  0.28406404  0.35400309    -0.77400
C1711       C  0.69896965  0.28765182  0.39855917     0.84600
O1712       O  0.62934004  0.35448362  0.35620614    -0.77500
C1713       C  0.71274412  0.41526573  0.39791005     0.84700
C1714       C  0.58409894  0.29350612  0.40017760     0.85000
O1715       O  0.59946151  0.32703865  0.39843786    -0.79900
O1716       O  0.53660883  0.05592906  0.28659261    -0.77400
C1717       C  0.93208734  0.46689997  0.28899083     0.83600
O1718       O  0.53101016  0.44803538  0.27181473    -0.78500
O1719       O  0.92987625  0.43390875  0.25030009    -0.80000
O1720       O  0.99308622  0.05959164  0.24695419    -0.79800
O1721       O  0.55250750  0.08822309  0.26923668    -0.78400
Zn1722     Zn  0.00784927  0.50214637  0.28146056     1.55700
O1723       O  0.93926436  0.01612542  0.25145478    -0.79800
Cd1724     Cd  0.52690125  0.04820855  0.25610683     1.59700
Cd1725     Cd  0.51367588  0.46808911  0.25759825     1.59600
O1726       O  0.56314760  0.04896359  0.24346187    -0.79800
O1727       O  0.99990881  0.49901346  0.26392511    -1.90300
Cd1728     Cd  0.94873260  0.47946141  0.26103873     1.59900
O1729       O  0.55546011  0.99428498  0.24492560    -0.79800
O1730       O  0.92059879  0.46504819  0.27794332    -0.78400
C1731       C  0.53722817  0.45758254  0.28316452     0.84100
C1732       C  0.55246650  0.08573348  0.28107898     0.83700
O1733       O  0.96421742  0.48015176  0.29112909    -0.77400
C1734       C  0.96018541  0.04574144  0.24624306     0.84600
O1735       O  0.53142217  0.48121723  0.28754467    -0.77500
C1736       C  0.57103267  0.02550735  0.24032338     0.84700
C1737       C  0.94358152  0.41634337  0.24600396     0.85000
O1738       O  0.97535677  0.42552990  0.24786211    -0.79900
C1739       C  0.67057427  0.33621597  0.80716583     0.46500
H1740       H  0.66958204  0.33547661  0.81752406    -0.02500
C1741       C  0.67299052  0.33809900  0.78298967     0.46600
H1742       H  0.67480481  0.33886577  0.77264684    -0.02500
C1743       C  0.65487684  0.35769812  0.80128523    -0.16200
C1744       C  0.70795021  0.35317154  0.80180328    -0.15900
C1745       C  0.65052832  0.29914090  0.80112643    -0.16300
C1746       C  0.65607381  0.35836631  0.78843585    -0.16300
C1747       C  0.70855133  0.35409259  0.78899469    -0.15900
C1748       C  0.65235556  0.30065860  0.78829105    -0.16200
C1749       C  0.00124239  0.00009905  0.83022298     0.46500
H1750       H  0.00208113  0.00166228  0.81986893    -0.02500
C1751       C  0.99924749  0.99622684  0.85439710     0.46600
H1752       H  0.99786540  0.99456982  0.86473626    -0.02500
C1753       C  0.51955809  0.03650297  0.83665512    -0.16200
C1754       C  0.96313878  0.48094276  0.83722015    -0.15900
C1755       C  0.51814208  0.47972798  0.83696956    -0.16300
C1756       C  0.51790106  0.03410268  0.84950340    -0.16300
C1757       C  0.96201529  0.47908816  0.85005228    -0.15900
C1758       C  0.51648802  0.47723767  0.84978138    -0.16200
C1759       C  0.66303633  0.33156582  0.50009051     0.46500
H1760       H  0.66551686  0.33289281  0.48976015    -0.02500
C1761       C  0.65690088  0.32828036  0.52421308     0.46600
H1762       H  0.65494591  0.32689090  0.53455387    -0.02500
C1763       C  0.68044891  0.31240204  0.50634897    -0.16200
C1764       C  0.67981191  0.36830581  0.50633378    -0.15900
C1765       C  0.62487939  0.31186352  0.50476758    -0.16300
C1766       C  0.67686453  0.31070490  0.51914160    -0.16300
C1767       C  0.67634174  0.36614752  0.51913048    -0.15900
C1768       C  0.62199754  0.31025787  0.51755975    -0.16200
C1769       C  0.82910257  0.16642093  0.47670084     0.46500
H1770       H  0.82818614  0.16655456  0.48705919    -0.02500
C1771       C  0.83138116  0.16626304  0.45247259     0.46600
H1772       H  0.83176927  0.16645027  0.44213246    -0.02500
C1773       C  0.81105379  0.18502313  0.47052232    -0.16200
C1774       C  0.86637334  0.18525224  0.47130828    -0.15900
C1775       C  0.81128297  0.12902489  0.47114999    -0.16300
C1776       C  0.81271533  0.18515518  0.45766464    -0.16300
C1777       C  0.86744521  0.18580033  0.45847570    -0.15900
C1778       C  0.81214355  0.12880573  0.45831471    -0.16200
O1779       O  0.89011258  0.19638345  0.57609267    -0.77400
C1780       C  0.79997583  0.09213260  0.57312822     0.83600
O1781       O  0.79095890  0.20991983  0.58594677    -0.78500
O1782       O  0.75378106  0.10111294  0.60876537    -0.80000
O1783       O  0.87234540  0.14582139  0.61829867    -0.79800
O1784       O  0.91560145  0.20364483  0.59453076    -0.78400
Zn1785     Zn  0.83895743  0.17074979  0.57913658     1.55700
O1786       O  0.82415611  0.09620810  0.61305711    -0.79800
Cd1787     Cd  0.87278334  0.18385149  0.60639436     1.59700
Cd1788     Cd  0.80232002  0.18897551  0.60167379     1.59600
O1789       O  0.87851426  0.22530700  0.61728128    -0.79800
O1790       O  0.82856010  0.16424613  0.59675338    -1.90300
Cd1791     Cd  0.79994141  0.11241660  0.60032444     1.59900
O1792       O  0.83146583  0.23019686  0.61389173    -0.79800
O1793       O  0.79007918  0.08259142  0.58434414    -0.78400
C1794       C  0.80083691  0.21169128  0.57463159     0.84100
C1795       C  0.91726917  0.20725081  0.58270792     0.81900
O1796       O  0.81865996  0.12453590  0.57007644    -0.77400
C1797       C  0.85144573  0.11265278  0.61961514     0.84600
O1798       O  0.81936330  0.19845856  0.57118697    -0.77500
C1799       C  0.86054248  0.24033784  0.61922396     0.84700
C1800       C  0.74198746  0.12030357  0.61307551     0.85000
O1801       O  0.75721693  0.15375111  0.61123912    -0.79900
O1802       O  0.52000239  0.04434776  0.73804903    -0.77400
C1803       C  0.92541167  0.44917984  0.73392974     0.83600
O1804       O  0.55279669  0.46230932  0.71654290    -0.78500
O1805       O  0.94177463  0.43291614  0.69580342    -0.80000
O1806       O  0.98636807  0.05973717  0.69713287    -0.79800
O1807       O  0.53576428  0.08441292  0.72286407    -0.78400
Zn1808     Zn  0.50246123  0.99758056  0.72959212     1.55700
O1809       O  0.93731266  0.00756853  0.69666303    -0.79800
Cd1810     Cd  0.52220331  0.05230822  0.70727104     1.59700
Cd1811     Cd  0.52795608  0.47828932  0.70346476     1.59600
O1812       O  0.56479224  0.06740491  0.69577395    -0.79800
O1813       O  0.50014670  0.00102271  0.71173523    -1.90300
Cd1814     Cd  0.95081347  0.47429878  0.70732222     1.59900
O1815       O  0.56356707  0.01657337  0.69149551    -0.79800
O1816       O  0.91786672  0.45211955  0.72266808    -0.78400
C1817       C  0.55374288  0.46522282  0.72841490     0.84100
C1818       C  0.53225699  0.07619477  0.73440564     0.83700
O1819       O  0.95658790  0.46353266  0.73764575    -0.77400
C1820       C  0.95508748  0.04029928  0.69366344     0.84600
O1821       O  0.53734523  0.47788197  0.73415570    -0.77500
C1822       C  0.57597530  0.04978451  0.68981070     0.84700
C1823       C  0.96060186  0.42148289  0.69103487     0.85000
O1824       O  0.99297203  0.43533727  0.69339887    -0.79900
C1825       C  0.83262137  0.16264535  0.16648770     0.46500
H1826       H  0.83281574  0.16096629  0.15615128    -0.02500
C1827       C  0.83203282  0.16664502  0.19065210     0.46600
H1828       H  0.83119488  0.16743964  0.20096297    -0.02500
C1829       C  0.84851271  0.14253005  0.17308263    -0.16200
C1830       C  0.85311163  0.20102464  0.17141563    -0.15900
C1831       C  0.79579204  0.14701389  0.17207985    -0.16300
C1832       C  0.84771971  0.14428202  0.18587787    -0.16300
C1833       C  0.85266795  0.20302044  0.18423801    -0.15900
C1834       C  0.79570029  0.14963929  0.18489900    -0.16200
C1835       C  0.00252084  0.50209659  0.11966511     0.46500
H1836       H  0.00141544  0.50278498  0.10934745    -0.02500
C1837       C  0.00595742  0.50219375  0.14385702     0.46600
H1838       H  0.00750788  0.50222030  0.15420001    -0.02500
C1839       C  0.98448794  0.01974239  0.12592406    -0.16200
C1840       C  0.98533307  0.46475032  0.12538848    -0.15900
C1841       C  0.53831543  0.01924225  0.12423055    -0.16300
C1842       C  0.98563973  0.01921149  0.13872583    -0.16300
C1843       C  0.98701480  0.46459043  0.13821058    -0.15900
C1844       C  0.54087583  0.02056534  0.13705879    -0.16200
O1845       O  0.68664231  0.37795976  0.95581913    -0.77400
C1846       C  0.58761638  0.28233117  0.94778138     0.83600
O1847       O  0.72146721  0.30199170  0.93704891    -0.78500
O1848       O  0.61926890  0.26729942  0.90970914    -0.80000
O1849       O  0.65420045  0.39342342  0.91559807    -0.79800
O1850       O  0.70601017  0.41689144  0.94016665    -0.78400
Zn1851     Zn  0.66667422  0.32999969  0.94744489     1.55700
O1852       O  0.60857751  0.33995547  0.91201801    -0.79800
Cd1853     Cd  0.68986956  0.38478929  0.92472610     1.59700
Cd1854     Cd  0.69965622  0.31616107  0.92265685     1.59600
O1855       O  0.73169440  0.40104048  0.91283719    -0.79800
O1856       O  0.66900350  0.33386302  0.92934808    -1.90300
Cd1857     Cd  0.62143410  0.30619315  0.92175049     1.59900
O1858       O  0.73866113  0.35384281  0.91140107    -0.79800
O1859       O  0.58459976  0.28175145  0.93593476    -0.78400
C1860       C  0.71587586  0.29989205  0.94876308     0.84100
C1861       C  0.70200834  0.40978381  0.95177033     0.83700
O1862       O  0.61709019  0.29947377  0.95307975    -0.77400
C1863       C  0.62431525  0.37369651  0.91096649     0.84600
O1864       O  0.69497550  0.30857944  0.95365067    -0.77500
C1865       C  0.74732104  0.38561111  0.90843496     0.84700
C1866       C  0.64120637  0.25734901  0.90700910     0.85000
O1867       O  0.67173753  0.27247836  0.91151748    -0.79900
O1868       O  0.88621134  0.18691241  0.02004310    -0.77400
C1869       C  0.78864006  0.08988227  0.02656594     0.83600
O1870       O  0.80850501  0.22397038  0.03680131    -0.78500
O1871       O  0.76857025  0.12181567  0.06385044    -0.80000
O1872       O  0.89023235  0.15111540  0.06288932    -0.79800
O1873       O  0.92136715  0.19802742  0.03621802    -0.78400
Zn1874     Zn  0.83853488  0.16967939  0.02746075     1.55700
O1875       O  0.83557076  0.10622195  0.06351029    -0.79800
Cd1876     Cd  0.88813510  0.18828460  0.05127959     1.59700
Cd1877     Cd  0.82293474  0.20363560  0.05163581     1.59600
O1878       O  0.90684092  0.23553074  0.06085120    -0.79800
O1879       O  0.83929605  0.17095907  0.04558454    -1.90300
Cd1880     Cd  0.80753172  0.12256389  0.05265603     1.59900
O1881       O  0.86221792  0.24568300  0.06106722    -0.79800
O1882       O  0.78497651  0.08611135  0.03836357    -0.78400
C1883       C  0.80887704  0.21943673  0.02509225     0.84100
C1884       C  0.91621281  0.19670120  0.02449849     0.83700
O1885       O  0.80808225  0.11997879  0.02149776    -0.77400
C1886       C  0.86738823  0.12026753  0.06662131     0.84600
O1887       O  0.81968092  0.19969644  0.02047403    -0.77500
C1888       C  0.89338638  0.25441560  0.06385390     0.84700
C1889       C  0.76199316  0.14599919  0.06724348     0.85000
O1890       O  0.78033334  0.17796529  0.06350888    -0.79900
C1891       C  0.74817481  0.27267960  0.97803524     0.19800
C1892       C  0.74370096  0.27506250  0.99088964    -0.18300
C1893       C  0.75869467  0.26272775  0.99956786    -0.10600
C1894       C  0.77882231  0.24778000  0.99556901     0.22000
C1895       C  0.78345248  0.24553839  0.98272014    -0.20000
C1896       C  0.76836150  0.25778144  0.97403299    -0.10800
C1897       C  0.79390451  0.23251298  0.00433717    -0.15000
C1898       C  0.79583319  0.23727118  0.01677205    -0.28800
C1899       C  0.73045072  0.28519351  0.96930723    -0.03100
C1900       C  0.73442732  0.28719880  0.95681680    -0.39600
H1901       H  0.72811414  0.28616182  0.99426333     0.13200
H1902       H  0.75357608  0.26431494  0.00932287     0.12800
H1903       H  0.79855535  0.23387517  0.97936220     0.12200
H1904       H  0.77230353  0.25483853  0.96427382     0.12500
H1905       H  0.80364982  0.21621084  0.00031648     0.15200
H1906       H  0.78736760  0.25414232  0.02112130     0.14000
H1907       H  0.71321307  0.29341262  0.97345633     0.11700
H1908       H  0.75179979  0.27997942  0.95225643     0.13700
C1909       C  0.75751843  0.02959275  0.99758643     0.19800
C1910       C  0.77114983  0.03374389  0.98548571    -0.18300
C1911       C  0.75825345  0.49925771  0.97816328    -0.10600
C1912       C  0.72981774  0.46637171  0.98166867     0.22000
C1913       C  0.71617931  0.46233046  0.99377252    -0.20000
C1914       C  0.72919241  0.99659395  0.00109895    -0.10800
C1915       C  0.71436682  0.43576674  0.97299826    -0.15000
C1916       C  0.71622410  0.43978782  0.96051770    -0.28800
C1917       C  0.77365442  0.06048223  0.00609759    -0.03100
C1918       C  0.77012222  0.05830823  0.01860383    -0.39600
H1919       H  0.79300347  0.05881592  0.98253689     0.13200
H1920       H  0.77044670  0.50317677  0.96910673     0.12800
H1921       H  0.69444836  0.43719850  0.99673406     0.12200
H1922       H  0.71731111  0.99243467  0.01021659     0.12500
H1923       H  0.70031513  0.40927898  0.97700134     0.15200
H1924       H  0.72857217  0.46611928  0.95641017     0.14000
H1925       H  0.79058337  0.08618751  0.00184271     0.11700
H1926       H  0.75449793  0.03296020  0.02321440     0.13700
C1927       C  0.52729843  0.24630223  0.97682360     0.19800
C1928       C  0.03347206  0.24191777  0.98923471    -0.18300
C1929       C  0.00654298  0.22873068  0.99802803    -0.10600
C1930       C  0.97238442  0.21861644  0.99440882     0.22000
C1931       C  0.96591319  0.22095779  0.98170786    -0.20000
C1932       C  0.49249443  0.22822816  0.97285431    -0.10800
C1933       C  0.94287761  0.20617437  0.00345184    -0.15000
C1934       C  0.94614584  0.20731310  0.01598101    -0.28800
C1935       C  0.55763547  0.26209682  0.96811321    -0.03100
C1936       C  0.55589158  0.26316362  0.95556932    -0.39600
H1937       H  0.05955949  0.25004628  0.99237256     0.13200
H1938       H  0.01299175  0.22682092  0.00759036     0.12800
H1939       H  0.93990048  0.21326554  0.97860406     0.12200
H1940       H  0.48586184  0.22391322  0.96309421     0.12500
H1941       H  0.91717577  0.19667802  0.99955274     0.15200
H1942       H  0.97128259  0.21705256  0.02029062     0.14000
H1943       H  0.58316956  0.27478484  0.97239026     0.11700
H1944       H  0.53112338  0.25093011  0.95083343     0.13700
C1945       C  0.95805098  0.39958635  0.09788591     0.19800
C1946       C  0.97535398  0.39210983  0.08844607    -0.18300
C1947       C  0.95734596  0.36181680  0.08111202    -0.10600
C1948       C  0.92156598  0.33884096  0.08301913     0.22000
C1949       C  0.90409939  0.34710822  0.09213559    -0.20000
C1950       C  0.92210667  0.37706272  0.09953285    -0.10800
C1951       C  0.90131188  0.30656741  0.07549258    -0.15000
C1952       C  0.91483947  0.28743367  0.07078322    -0.28800
C1953       C  0.97752912  0.43155714  0.10566057    -0.03100
C1954       C  0.96877068  0.43227017  0.11761551    -0.39600
H1955       H  0.00288703  0.40951238  0.08684811     0.13200
H1956       H  0.97131765  0.35675672  0.07386624     0.12800
H1957       H  0.87643775  0.33013146  0.09361491     0.12200
H1958       H  0.90769148  0.38281045  0.10639873     0.12500
H1959       H  0.87369748  0.29705195  0.07445408     0.15200
H1960       H  0.94188962  0.29537757  0.07239318     0.14000
H1961       H  0.99998334  0.45426550  0.10156195     0.11700
H1962       H  0.94858600  0.40797642  0.12170024     0.13700
C1963       C  0.92103561  0.09121409  0.08667353     0.19800
C1964       C  0.94853704  0.10850470  0.09507720    -0.18300
C1965       C  0.96041690  0.08939380  0.10200759    -0.10600
C1966       C  0.94508056  0.05245723  0.10060379     0.22000
C1967       C  0.91806100  0.03527966  0.09200656    -0.20000
C1968       C  0.90602665  0.05436737  0.08513490    -0.10800
C1969       C  0.95737926  0.03132052  0.10763333    -0.15000
C1970       C  0.97255155  0.04107618  0.11884227    -0.28800
C1971       C  0.90995335  0.11259566  0.07917194    -0.03100
C1972       C  0.87766512  0.09934825  0.07461209    -0.39600
H1973       H  0.96093595  0.13693711  0.09626123     0.13200
H1974       H  0.98212129  0.10381440  0.10821144     0.12800
H1975       H  0.90620352  0.00697013  0.09060681     0.12200
H1976       H  0.88560158  0.04029585  0.07841973     0.12500
H1977       H  0.95208547  0.00606764  0.10377669     0.15200
H1978       H  0.97531058  0.06474274  0.12323586     0.14000
H1979       H  0.92885662  0.14034379  0.07756434     0.11700
H1980       H  0.85793107  0.07230195  0.07679051     0.13700
C1981       C  0.68219503  0.09505773  0.08930324     0.19800
C1982       C  0.65853190  0.05899737  0.09138902    -0.18300
C1983       C  0.63062467  0.04828653  0.09967776    -0.10600
C1984       C  0.62552076  0.07348291  0.10613114     0.22000
C1985       C  0.64945193  0.10955347  0.10422594    -0.20000
C1986       C  0.67740968  0.12031193  0.09590042    -0.10800
C1987       C  0.59660217  0.06292115  0.11531357    -0.15000
C1988       C  0.56720532  0.03128091  0.11501346    -0.28800
C1989       C  0.71196368  0.10472654  0.08056633    -0.03100
C1990       C  0.73245816  0.13744052  0.07579615    -0.39600
H1991       H  0.66175660  0.03889199  0.08662593     0.13200
H1992       H  0.61366709  0.02020092  0.10119643     0.12800
H1993       H  0.64654923  0.12952630  0.10922621     0.12200
H1994       H  0.69541175  0.14834994  0.09491770     0.12500
H1995       H  0.59933679  0.08189793  0.12240334     0.15200
H1996       H  0.56248750  0.01380265  0.10717824     0.14000
H1997       H  0.71685905  0.08360186  0.07777273     0.11700
H1998       H  0.72765985  0.15888556  0.07807857     0.13700
C1999       C  0.92769574  0.05581239  0.15191124     0.19800
C2000       C  0.89374541  0.04891947  0.14949780    -0.18300
C2001       C  0.88081312  0.06922695  0.15501584    -0.10600
C2002       C  0.90173703  0.09726879  0.16305653     0.22000
C2003       C  0.93543383  0.10374952  0.16564317    -0.20000
C2004       C  0.94839428  0.08351432  0.16010895    -0.10800
C2005       C  0.88918065  0.11937371  0.16938182    -0.15000
C2006       C  0.86104271  0.12156905  0.16593283    -0.28800
C2007       C  0.94105767  0.03526743  0.14496729    -0.03100
C2008       C  0.97157373  0.03638206  0.14717428    -0.39600
H2009       H  0.87715402  0.02781601  0.14322056     0.13200
H2010       H  0.85438064  0.06256463  0.15302890     0.12800
H2011       H  0.95206664  0.12495489  0.17187906     0.12200
H2012       H  0.97485191  0.09034987  0.16210400     0.12500
H2013       H  0.90434335  0.13516957  0.17722375     0.15200
H2014       H  0.84750429  0.10921573  0.15739104     0.14000
H2015       H  0.92521305  0.01898263  0.13732228     0.11700
H2016       H  0.98658198  0.04935591  0.15539716     0.13700
C2017       C  0.91000265  0.29636391  0.15816569     0.19800
C2018       C  0.94553334  0.32195710  0.15817976    -0.18300
C2019       C  0.95707528  0.35693910  0.15426052    -0.10600
C2020       C  0.93319521  0.36739199  0.15033868     0.22000
C2021       C  0.89773025  0.34173039  0.15025231    -0.20000
C2022       C  0.88621304  0.30681320  0.15415325    -0.10800
C2023       C  0.94392503  0.40365979  0.14537317    -0.15000
C2024       C  0.97631860  0.43190095  0.14585642    -0.28800
C2025       C  0.89867784  0.26042520  0.16359336    -0.03100
C2026       C  0.86608123  0.23252540  0.16295020    -0.39600
H2027       H  0.96450964  0.31490351  0.16131914     0.13200
H2028       H  0.98468619  0.37539878  0.15421119     0.12800
H2029       H  0.87868297  0.34877152  0.14718798     0.12200
H2030       H  0.85857166  0.28850382  0.15427505     0.12500
H2031       H  0.92426325  0.40691774  0.14046888     0.15200
H2032       H  0.99605704  0.43122488  0.15158798     0.14000
H2033       H  0.91749077  0.25752499  0.16921127     0.11700
H2034       H  0.84744814  0.23292380  0.15653576     0.13700
C2035       C  0.70178652  0.10585462  0.15940821     0.19800
C2036       C  0.67098837  0.10021518  0.16515620    -0.18300
C2037       C  0.63864480  0.07786008  0.15981725    -0.10600
C2038       C  0.63627594  0.06088701  0.14840392     0.22000
C2039       C  0.66708261  0.06610945  0.14273545    -0.20000
C2040       C  0.69949710  0.08837328  0.14812768    -0.10800
C2041       C  0.60255955  0.03839315  0.14195033    -0.15000
C2042       C  0.57338997  0.03965398  0.14438715    -0.28800
C2043       C  0.73535747  0.12970740  0.16567281    -0.03100
C2044       C  0.76456186  0.12797125  0.16404171    -0.39600
H2045       H  0.67191633  0.11288404  0.17394029     0.13200
H2046       H  0.61578878  0.07392688  0.16478991     0.12800
H2047       H  0.66612626  0.05345752  0.13394703     0.12200
H2048       H  0.72253605  0.09228489  0.14327599     0.12500
H2049       H  0.60227262  0.02167350  0.13440320     0.15200
H2050       H  0.57244866  0.05526001  0.15205155     0.14000
H2051       H  0.73522282  0.14758213  0.17268487     0.11700
H2052       H  0.76593628  0.11126759  0.15685719     0.13700
C2053       C  0.90106473  0.05600634  0.66901375     0.19800
C2054       C  0.88238431  0.03619828  0.65864249    -0.18300
C2055       C  0.87529515  0.05244990  0.64865907    -0.10600
C2056       C  0.88642058  0.08894844  0.64894312     0.22000
C2057       C  0.90394025  0.10837501  0.65953364    -0.20000
C2058       C  0.91092635  0.09213594  0.66949767    -0.10800
C2059       C  0.88114076  0.10815226  0.63840856    -0.15000
C2060       C  0.85796645  0.09225530  0.62922283    -0.28800
C2061       C  0.91142338  0.03873594  0.67880582    -0.03100
C2062       C  0.94040717  0.05705540  0.68559318    -0.39600
H2063       H  0.87436196  0.00831142  0.65805189     0.13200
H2064       H  0.86211710  0.03645208  0.64064831     0.12800
H2065       H  0.91242538  0.13637887  0.66009196     0.12200
H2066       H  0.92419358  0.10809985  0.67751634     0.12500
H2067       H  0.89592531  0.13693522  0.63856752     0.15200
H2068       H  0.84134936  0.06372223  0.62917040     0.14000
H2069       H  0.89707680  0.01000341  0.67951581     0.11700
H2070       H  0.95638041  0.08545825  0.68426355     0.13700
C2071       C  0.94566081  0.35877428  0.66345473     0.19800
C2072       C  0.91012850  0.34280018  0.66041227    -0.18300
C2073       C  0.89641533  0.31846342  0.65066334    -0.10600
C2074       C  0.91794661  0.30980431  0.64363874     0.22000
C2075       C  0.95336630  0.32607651  0.64657559    -0.20000
C2076       C  0.96706593  0.35035111  0.65631366    -0.10800
C2077       C  0.90443369  0.28242210  0.63375158    -0.15000
C2078       C  0.87337177  0.26991784  0.62816360    -0.28800
C2079       C  0.96185955  0.38523130  0.67360816    -0.03100
C2080       C  0.94377002  0.39186358  0.68221359    -0.39600
H2081       H  0.89261423  0.34894489  0.66538589     0.13200
H2082       H  0.86886698  0.30609500  0.64888756     0.12800
H2083       H  0.97054143  0.31981479  0.64135281     0.12200
H2084       H  0.99453161  0.36242161  0.65833033     0.12500
H2085       H  0.92104215  0.27178911  0.63101338     0.15200
H2086       H  0.85673135  0.28093129  0.63023737     0.14000
H2087       H  0.99006307  0.40063700  0.67379991     0.11700
H2088       H  0.91565789  0.37707341  0.68237284     0.13700
C2089       C  0.67859493  0.10296107  0.64008214     0.19800
C2090       C  0.68392071  0.12087410  0.65142534    -0.18300
C2091       C  0.66177827  0.10455035  0.66158995    -0.10600
C2092       C  0.63342866  0.06997326  0.66055403     0.22000
C2093       C  0.62790142  0.05215089  0.64917781    -0.20000
C2094       C  0.65004839  0.06849141  0.63900453    -0.10800
C2095       C  0.60924860  0.05155051  0.67110534    -0.15000
C2096       C  0.60336627  0.06872495  0.68036488    -0.28800
C2097       C  0.70413914  0.12071367  0.62982569    -0.03100
C2098       C  0.71079598  0.10279916  0.62107377    -0.39600
H2099       H  0.70583633  0.14733823  0.65252706     0.13200
H2100       H  0.66745473  0.11885521  0.67028066     0.12800
H2101       H  0.60615506  0.02556395  0.64812303     0.12200
H2102       H  0.64454644  0.05410438  0.63033616     0.12500
H2103       H  0.59381420  0.02282398  0.67073441     0.15200
H2104       H  0.61646096  0.09744649  0.68039332     0.14000
H2105       H  0.72091741  0.14926514  0.63038319     0.11700
H2106       H  0.69626512  0.07406915  0.62096707     0.13700
C2107       C  0.75988033  0.00289707  0.55585555     0.19800
C2108       C  0.73782839  0.46699424  0.55944003    -0.18300
C2109       C  0.72477480  0.44049014  0.55043515    -0.10600
C2110       C  0.73896514  0.44740070  0.53832111     0.22000
C2111       C  0.76762300  0.48070883  0.53562159    -0.20000
C2112       C  0.77450198  0.00958477  0.54377727    -0.10800
C2113       C  0.72457096  0.42015103  0.52844370    -0.15000
C2114       C  0.69071155  0.39569815  0.52807317    -0.28800
C2115       C  0.77155964  0.03051073  0.56563180    -0.03100
C2116       C  0.78969652  0.06545966  0.56322687    -0.39600
H2117       H  0.72598599  0.46109289  0.56862755     0.13200
H2118       H  0.70368911  0.41459052  0.55303160     0.12800
H2119       H  0.77353217  0.98839732  0.52564066     0.12200
H2120       H  0.79571962  0.03528350  0.54112287     0.12500
H2121       H  0.74195905  0.42058696  0.52120078     0.15200
H2122       H  0.67309669  0.39488644  0.53526631     0.14000
H2123       H  0.76381871  0.02164249  0.57519576     0.11700
H2124       H  0.79687365  0.07525067  0.55375603     0.13700
C2125       C  0.98772814  0.24696366  0.55700905     0.19800
C2126       C  0.48839689  0.24240570  0.54436347    -0.18300
C2127       C  0.51883388  0.25895715  0.53724837    -0.10600
C2128       C  0.55072598  0.28232770  0.54286431     0.22000
C2129       C  0.55125558  0.28917586  0.55567024    -0.20000
C2130       C  0.52075728  0.27254030  0.56280415    -0.10800
C2131       C  0.58361748  0.30121737  0.53562673    -0.15000
C2132       C  0.58882457  0.29008312  0.52456159    -0.28800
C2133       C  0.95442376  0.22918957  0.56402448    -0.03100
C2134       C  0.95158048  0.22472016  0.57650062    -0.39600
H2135       H  0.46417648  0.22466792  0.53977461     0.13200
H2136       H  0.51693758  0.25393873  0.52733553     0.12800
H2137       H  0.57539083  0.30754426  0.56017403     0.12200
H2138       H  0.02171653  0.27423621  0.57262192     0.12500
H2139       H  0.60438517  0.32535113  0.53962826     0.15200
H2140       H  0.56861297  0.26590925  0.52044256     0.14000
H2141       H  0.93085198  0.21872817  0.55851831     0.11700
H2142       H  0.97438042  0.23368042  0.58229530     0.13700
C2143       C  0.73717017  0.29002577  0.53876584     0.19800
C2144       C  0.76574853  0.28547945  0.53634545    -0.18300
C2145       C  0.77801869  0.27154267  0.54552114    -0.10600
C2146       C  0.76182486  0.26188569  0.55734768     0.22000
C2147       C  0.73423306  0.26796408  0.55989652    -0.20000
C2148       C  0.72203427  0.28190565  0.55074323    -0.10800
C2149       C  0.77288204  0.24566568  0.56728948    -0.15000
C2150       C  0.79088965  0.22901721  0.56492018    -0.28800
C2151       C  0.72397256  0.30383189  0.52876765    -0.03100
C2152       C  0.69033986  0.29469170  0.52811067    -0.39600
H2153       H  0.77828375  0.29225172  0.52727576     0.13200
H2154       H  0.80030409  0.26875858  0.54328683     0.12800
H2155       H  0.72176691  0.26151619  0.56897755     0.12200
H2156       H  0.70094865  0.28657209  0.55314201     0.12500
H2157       H  0.76455846  0.24603683  0.57680231     0.15200
H2158       H  0.79827484  0.22708518  0.55543622     0.14000
H2159       H  0.74204074  0.32129664  0.52170135     0.11700
H2160       H  0.67208287  0.27729756  0.53511603     0.13700
C2161       C  0.76819063  0.03244563  0.48397464     0.19800
C2162       C  0.77520355  0.00445899  0.48281746    -0.18300
C2163       C  0.75371692  0.47203833  0.48782188    -0.10600
C2164       C  0.72526009  0.46678580  0.49522318     0.22000
C2165       C  0.71948661  0.49544618  0.49696897    -0.20000
C2166       C  0.73878711  0.02664613  0.49090290    -0.10800
C2167       C  0.70220808  0.43262672  0.50179309    -0.15000
C2168       C  0.70003716  0.40145862  0.49887069    -0.28800
C2169       C  0.79072709  0.06615860  0.47708844    -0.03100
C2170       C  0.79156832  0.09708968  0.47925275    -0.39600
H2171       H  0.79761001  0.00809974  0.47753823     0.13200
H2172       H  0.75990822  0.45116257  0.48651946     0.12800
H2173       H  0.69795271  0.49229919  0.50268548     0.12200
H2174       H  0.73187063  0.04711787  0.49180861     0.12500
H2175       H  0.68623845  0.43325006  0.50936431     0.15200
H2176       H  0.71273594  0.39936544  0.49053235     0.14000
H2177       H  0.80714567  0.06533233  0.46971039     0.11700
H2178       H  0.77834593  0.09986115  0.48731659     0.13700
C2179       C  0.96225777  0.22804269  0.48237491     0.19800
C2180       C  0.49223962  0.22440008  0.47847245    -0.18300
C2181       C  0.52542491  0.24655427  0.48330364    -0.10600
C2182       C  0.53060602  0.27197897  0.49237391     0.22000
C2183       C  0.50170975  0.27440878  0.49645939    -0.20000
C2184       C  0.96719206  0.25135165  0.49221574    -0.10800
C2185       C  0.56475210  0.29489049  0.49849838    -0.15000
C2186       C  0.59454783  0.29454960  0.49618380    -0.28800
C2187       C  0.92785953  0.20495171  0.47644875    -0.03100
C2188       C  0.89773828  0.20397194  0.47936879    -0.39600
H2189       H  0.48918048  0.20530525  0.47142033     0.13200
H2190       H  0.54661668  0.24329632  0.47992817     0.12800
H2191       H  0.50474911  0.29350110  0.50351066     0.12200
H2192       H  0.94572624  0.25297418  0.49627161     0.12500
H2193       H  0.56482602  0.31167810  0.50598908     0.15200
H2194       H  0.59699418  0.28074268  0.48821162     0.14000
H2195       H  0.92770053  0.18896459  0.46865895     0.11700
H2196       H  0.89554827  0.21718069  0.48756765     0.13700
C2197       C  0.77088506  0.24062043  0.48293120     0.19800
C2198       C  0.76100639  0.26281727  0.47681053    -0.18300
C2199       C  0.73903990  0.27296241  0.48264708    -0.10600
C2200       C  0.72676922  0.26142843  0.49486453     0.22000
C2201       C  0.73685731  0.23940166  0.50100131    -0.20000
C2202       C  0.75875151  0.22920667  0.49515529    -0.10800
C2203       C  0.70344245  0.27146836  0.50156402    -0.15000
C2204       C  0.70101623  0.30043796  0.49882756    -0.28800
C2205       C  0.79343298  0.22969173  0.47619598    -0.03100
C2206       C  0.79235189  0.19860769  0.47828465    -0.39600
H2207       H  0.76978490  0.27178877  0.46736185     0.13200
H2208       H  0.73134129  0.28924152  0.47743865     0.12800
H2209       H  0.72804484  0.23032886  0.51043843     0.12200
H2210       H  0.76643038  0.21281729  0.50031632     0.12500
H2211       H  0.68878649  0.25499190  0.50942857     0.15200
H2212       H  0.71459362  0.31666124  0.49079173     0.14000
H2213       H  0.80962801  0.24668891  0.46866910     0.11700
H2214       H  0.77696284  0.18168766  0.48594211     0.13700
C2215       C  0.87224652  0.44296484  0.86578648     0.19800
C2216       C  0.85046197  0.45677782  0.86859998    -0.18300
C2217       C  0.82353871  0.43979610  0.87731795    -0.10600
C2218       C  0.81788172  0.40848646  0.88334213     0.22000
C2219       C  0.83855597  0.39376632  0.88001046    -0.20000
C2220       C  0.86535972  0.41068213  0.87131459    -0.10800
C2221       C  0.79018107  0.38973409  0.89283984    -0.15000
C2222       C  0.77578497  0.40538851  0.89944149    -0.28800
C2223       C  0.90206903  0.46260335  0.85714825    -0.03100
C2224       C  0.93097103  0.46019883  0.85814886    -0.39600
H2225       H  0.85471921  0.48112550  0.86423017     0.13200
H2226       H  0.80720137  0.45118643  0.87919707     0.12800
H2227       H  0.83419837  0.36923171  0.88425652     0.12200
H2228       H  0.88055114  0.39829947  0.86892863     0.12500
H2229       H  0.78179658  0.36200538  0.89463462     0.15200
H2230       H  0.78435400  0.43326930  0.89810192     0.14000
H2231       H  0.90092916  0.48037745  0.85025932     0.11700
H2232       H  0.93364908  0.44581777  0.86596322     0.13700
C2233       C  0.56490427  0.39513284  0.89094733     0.19800
C2234       C  0.54631618  0.38126889  0.87989119    -0.18300
C2235       C  0.53540510  0.40094846  0.87274093    -0.10600
C2236       C  0.54284516  0.43499178  0.87658004     0.22000
C2237       C  0.55981193  0.44788847  0.88798320    -0.20000
C2238       C  0.57065583  0.42825613  0.89510073    -0.10800
C2239       C  0.53352952  0.45806248  0.86914570    -0.15000
C2240       C  0.52465859  0.45299124  0.85703661    -0.28800
C2241       C  0.57859334  0.37502272  0.89788391    -0.03100
C2242       C  0.60843182  0.39174613  0.90429649    -0.39600
H2243       H  0.54095798  0.35551049  0.87662331     0.13200
H2244       H  0.52123292  0.38922936  0.86427970     0.12800
H2245       H  0.56521663  0.47359397  0.89133226     0.12200
H2246       H  0.58358645  0.43916727  0.90385152     0.12500
H2247       H  0.53877630  0.98391615  0.87207436     0.15200
H2248       H  0.52384481  0.43090072  0.85213864     0.14000
H2249       H  0.56523447  0.34635498  0.89705963     0.11700
H2250       H  0.62299846  0.42050492  0.90435780     0.13700
C2251       C  0.57098616  0.12300765  0.86707894     0.19800
C2252       C  0.60629323  0.14715350  0.86902511    -0.18300
C2253       C  0.61655779  0.17548575  0.87728605    -0.10600
C2254       C  0.59156697  0.18036010  0.88377129     0.22000
C2255       C  0.55630257  0.15682220  0.88151972    -0.20000
C2256       C  0.54606882  0.12854358  0.87328718    -0.10800
C2257       C  0.60099809  0.21015002  0.89260578    -0.15000
C2258       C  0.63195634  0.22765045  0.89831858    -0.28800
C2259       C  0.56093164  0.09328950  0.85816274    -0.03100
C2260       C  0.52965194  0.06368575  0.85850953    -0.39600
H2261       H  0.62602551  0.14403581  0.86415684     0.13200
H2262       H  0.64402688  0.19372984  0.87835065     0.12800
H2263       H  0.53650192  0.16029960  0.88617073     0.12200
H2264       H  0.51859324  0.11156746  0.87166552     0.12500
H2265       H  0.58127467  0.21723041  0.89476114     0.15200
H2266       H  0.65150607  0.22004803  0.89670737     0.14000
H2267       H  0.57985679  0.09560743  0.85122646     0.11700
H2268       H  0.51211789  0.05928620  0.86623482     0.13700
C2269       C  0.78619031  0.36796252  0.76930418     0.19800
C2270       C  0.81799604  0.36921129  0.77117529    -0.18300
C2271       C  0.84337093  0.38232497  0.76179108    -0.10600
C2272       C  0.83715351  0.39429634  0.75035449     0.22000
C2273       C  0.80449476  0.39080594  0.74823966    -0.20000
C2274       C  0.77923874  0.37776484  0.75759180    -0.10800
C2275       C  0.86421883  0.41140736  0.74055884    -0.15000
C2276       C  0.89814529  0.42932537  0.74327186    -0.28800
C2277       C  0.76029609  0.35611854  0.77954314    -0.03100
C2278       C  0.73918846  0.36971233  0.78075810    -0.39600
H2279       H  0.82351778  0.36089404  0.78000422     0.13200
H2280       H  0.86774492  0.38313761  0.76355917     0.12800
H2281       H  0.79879965  0.39907775  0.73943299     0.12200
H2282       H  0.75428176  0.37544810  0.75561812     0.12500
H2283       H  0.85596820  0.41163304  0.73103953     0.15200
H2284       H  0.90664557  0.43069772  0.75283497     0.14000
H2285       H  0.75830210  0.33597162  0.78605578     0.11700
H2286       H  0.74130142  0.39007966  0.77435256     0.13700
C2287       C  0.60086748  0.41795816  0.74135148     0.19800
C2288       C  0.61879323  0.43659737  0.75207959    -0.18300
C2289       C  0.62947316  0.42061372  0.76103826    -0.10600
C2290       C  0.62256598  0.38561853  0.75943252     0.22000
C2291       C  0.60614565  0.36775252  0.74842590    -0.20000
C2292       C  0.59554486  0.38378271  0.73946481    -0.10800
C2293       C  0.63253354  0.36677079  0.76870553    -0.15000
C2294       C  0.64510842  0.37862424  0.78019877    -0.28800
C2295       C  0.58588841  0.43277066  0.73235905    -0.03100
C2296       C  0.57365154  0.45379791  0.73623665    -0.39600
H2297       H  0.62456642  0.46356419  0.75359926     0.13200
H2298       H  0.64309756  0.43593272  0.76911299     0.12800
H2299       H  0.60099473  0.34099508  0.74682255     0.12200
H2300       H  0.58211954  0.36899573  0.73123764     0.12500
H2301       H  0.62841272  0.34097574  0.76593715     0.15200
H2302       H  0.64742652  0.40301421  0.78369231     0.14000
H2303       H  0.58144017  0.42332412  0.72280739     0.11700
H2304       H  0.57556117  0.46075900  0.74603005     0.13700
C2305       C  0.56572268  0.16575121  0.75088719     0.19800
C2306       C  0.59206401  0.20019315  0.74798832    -0.18300
C2307       C  0.60424151  0.22663400  0.75701743    -0.10600
C2308       C  0.59017566  0.21912317  0.76916550     0.22000
C2309       C  0.56250033  0.18521877  0.77187954    -0.20000
C2310       C  0.55040722  0.15865572  0.76284547    -0.10800
C2311       C  0.60401981  0.24627607  0.77908889    -0.15000
C2312       C  0.63778038  0.27085865  0.77946538    -0.28800
C2313       C  0.55484390  0.13804724  0.74120163    -0.03100
C2314       C  0.54217095  0.10365857  0.74400782    -0.39600
H2315       H  0.60372968  0.20649909  0.73877247     0.13200
H2316       H  0.62458151  0.25294987  0.75443125     0.12800
H2317       H  0.55078528  0.17907358  0.78108766     0.12200
H2318       H  0.52906059  0.13272468  0.76524702     0.12500
H2319       H  0.58651317  0.24559050  0.78632912     0.15200
H2320       H  0.65539543  0.27158318  0.77228396     0.14000
H2321       H  0.55922038  0.14647614  0.73149167     0.11700
H2322       H  0.53933013  0.09514044  0.75367799     0.13700
C2323       C  0.60039112  0.39986400  0.81290337     0.19800
C2324       C  0.56728203  0.39460022  0.81002830    -0.18300
C2325       C  0.55433989  0.41442546  0.81585940    -0.10600
C2326       C  0.57447719  0.44045620  0.82466682     0.22000
C2327       C  0.60763747  0.44579014  0.82753118    -0.20000
C2328       C  0.62058818  0.42594322  0.82169626    -0.10800
C2329       C  0.56125092  0.46096430  0.83165665    -0.15000
C2330       C  0.53234163  0.46232143  0.82874118    -0.28800
C2331       C  0.61323452  0.37885289  0.80602290    -0.03100
C2332       C  0.64155157  0.37665032  0.80912466    -0.39600
H2333       H  0.55117980  0.37483736  0.80325904     0.13200
H2334       H  0.52835810  0.40867303  0.81356280     0.12800
H2335       H  0.62368632  0.46549651  0.83432514     0.12200
H2336       H  0.64653896  0.43159964  0.82400337     0.12500
H2337       H  0.57585842  0.47529316  0.83982149     0.15200
H2338       H  0.51903076  0.45154757  0.82002494     0.14000
H2339       H  0.59831341  0.36417486  0.79796749     0.11700
H2340       H  0.65489950  0.38769517  0.81781489     0.13700
C2341       C  0.80372768  0.40424157  0.81345288     0.19800
C2342       C  0.83461930  0.43011308  0.80773181    -0.18300
C2343       C  0.86703513  0.44054638  0.81307347    -0.10600
C2344       C  0.86940024  0.42543252  0.82438502     0.22000
C2345       C  0.83856898  0.39938146  0.83007926    -0.20000
C2346       C  0.80610471  0.38892681  0.82473261    -0.10800
C2347       C  0.90308643  0.43642062  0.83075778    -0.15000
C2348       C  0.93230262  0.46782909  0.82892443    -0.28800
C2349       C  0.77015330  0.39392827  0.80706927    -0.03100
C2350       C  0.73919133  0.36525653  0.80988005    -0.39600
H2351       H  0.83372571  0.44214248  0.79897482     0.13200
H2352       H  0.89001660  0.46011570  0.80820478     0.12800
H2353       H  0.83955882  0.38740794  0.83883772     0.12200
H2354       H  0.78318891  0.36917620  0.82957037     0.12500
H2355       H  0.90300298  0.41900842  0.83806327     0.15200
H2356       H  0.93391649  0.48542739  0.82145583     0.14000
H2357       H  0.77144673  0.41034969  0.79921608     0.11700
H2358       H  0.73616752  0.34935406  0.81807892     0.13700
C2359       C  0.60521882  0.20104961  0.81290124     0.19800
C2360       C  0.61043442  0.17216803  0.81082393    -0.18300
C2361       C  0.58951925  0.13946338  0.81671866    -0.10600
C2362       C  0.56224661  0.13451897  0.82475108     0.22000
C2363       C  0.55707701  0.16346245  0.82685223    -0.20000
C2364       C  0.57809589  0.19624781  0.82097292    -0.10800
C2365       C  0.53984762  0.10043728  0.83157453    -0.15000
C2366       C  0.53879319  0.06955619  0.82901991    -0.28800
C2367       C  0.62745802  0.23485364  0.80596325    -0.03100
C2368       C  0.63041654  0.26640657  0.80884656    -0.39600
H2369       H  0.63100684  0.17495988  0.80463925     0.13200
H2370       H  0.59535991  0.11850396  0.81504013     0.12800
H2371       H  0.53650313  0.16065672  0.83303712     0.12200
H2372       H  0.57249246  0.21739911  0.82263338     0.12500
H2373       H  0.52370233  0.10092251  0.83911017     0.15200
H2374       H  0.55156197  0.06733595  0.82073332     0.14000
H2375       H  0.64244521  0.23365093  0.79815538     0.11700
H2376       H  0.61881670  0.26919180  0.81736376     0.13700
C2377       C  0.91527409  0.33554070  0.22465230     0.19800
C2378       C  0.93248133  0.32822242  0.21514167    -0.18300
C2379       C  0.91487047  0.29768296  0.20797434    -0.10600
C2380       C  0.87944937  0.27363198  0.21017333     0.22000
C2381       C  0.86233215  0.28063459  0.21982799    -0.20000
C2382       C  0.87997442  0.31136304  0.22698358    -0.10800
C2383       C  0.86033547  0.24023991  0.20299693    -0.15000
C2384       C  0.86943604  0.23693416  0.19131443    -0.28800
C2385       C  0.93566849  0.36760631  0.23231561    -0.03100
C2386       C  0.92175762  0.38426850  0.23862714    -0.39600
H2387       H  0.95980438  0.34612014  0.21330233     0.13200
H2388       H  0.92944180  0.29262994  0.20097409     0.12800
H2389       H  0.83525459  0.26220862  0.22186178     0.12200
H2390       H  0.86613992  0.31555569  0.23450131     0.12500
H2391       H  0.83771412  0.21842921  0.20737765     0.15200
H2392       H  0.88981306  0.26026597  0.18683388     0.14000
H2393       H  0.96368722  0.37870753  0.23237972     0.11700
H2394       H  0.89413187  0.37501235  0.23810979     0.13700
C2395       C  0.87889308  0.11208493  0.21405722     0.19800
C2396       C  0.90697586  0.12987741  0.22218942    -0.18300
C2397       C  0.91797773  0.11098205  0.22967765    -0.10600
C2398       C  0.90081337  0.07372960  0.22927187     0.22000
C2399       C  0.87153296  0.05584393  0.22164005    -0.20000
C2400       C  0.86075876  0.07478745  0.21403066    -0.10800
C2401       C  0.91298770  0.05304264  0.23668595    -0.15000
C2402       C  0.94681686  0.06564839  0.23918067    -0.28800
C2403       C  0.86918653  0.13321156  0.20578737    -0.03100
C2404       C  0.85571485  0.12223772  0.19438690    -0.39600
H2405       H  0.92092637  0.15855443  0.22255611     0.13200
H2406       H  0.93983498  0.12561830  0.23580708     0.12800
H2407       H  0.85746085  0.02716309  0.22134878     0.12200
H2408       H  0.83821231  0.06020609  0.20819009     0.12500
H2409       H  0.89404896  0.02622600  0.23952155     0.15200
H2410       H  0.96599560  0.09150877  0.23561350     0.14000
H2411       H  0.87596353  0.15973010  0.20874773     0.11700
H2412       H  0.85164070  0.09701863  0.19096452     0.13700
C2413       C  0.70540241  0.09674588  0.20093914     0.19800
C2414       C  0.68187103  0.06073019  0.20308244    -0.18300
C2415       C  0.65302690  0.05017545  0.21091690    -0.10600
C2416       C  0.64699532  0.07558182  0.21679293     0.22000
C2417       C  0.66979964  0.11157049  0.21422099    -0.20000
C2418       C  0.69861558  0.12209504  0.20639633    -0.10800
C2419       C  0.61732238  0.06593150  0.22554319    -0.15000
C2420       C  0.59923108  0.03406814  0.23118188    -0.28800
C2421       C  0.73604101  0.10690509  0.19268369    -0.03100
C2422       C  0.76503093  0.13881226  0.19314800    -0.39600
H2423       H  0.68599171  0.04063639  0.19876204     0.13200
H2424       H  0.63553782  0.02212153  0.21218973     0.12800
H2425       H  0.66548990  0.13172879  0.21838084     0.12200
H2426       H  0.71521137  0.15008448  0.20456090     0.12500
H2427       H  0.61109360  0.08646298  0.22784311     0.15200
H2428       H  0.60564873  0.01347233  0.22941436     0.14000
H2429       H  0.73508773  0.08726379  0.18622288     0.11700
H2430       H  0.76799389  0.15721000  0.20047352     0.13700
C2431       C  0.58358642  0.39694881  0.33213384     0.19800
C2432       C  0.57429981  0.38195703  0.32021243    -0.18300
C2433       C  0.56444884  0.39775046  0.31093685    -0.10600
C2434       C  0.56399098  0.42923246  0.31338134     0.22000
C2435       C  0.57276897  0.44394170  0.32536093    -0.20000
C2436       C  0.58262557  0.42813564  0.33464341    -0.10800
C2437       C  0.55336714  0.44700888  0.30396247    -0.15000
C2438       C  0.55041850  0.44018322  0.29162647    -0.28800
C2439       C  0.59637286  0.38043012  0.34125219    -0.03100
C2440       C  0.60125552  0.38801892  0.35351954    -0.39600
H2441       H  0.57482935  0.35792654  0.31803135     0.13200
H2442       H  0.55697152  0.38490802  0.30197811     0.12800
H2443       H  0.57242426  0.46808231  0.32751443     0.12200
H2444       H  0.59021615  0.44100259  0.34359709     0.12500
H2445       H  0.54751904  0.46689072  0.30747205     0.15200
H2446       H  0.55670203  0.42115521  0.28767435     0.14000
H2447       H  0.60284246  0.36123729  0.33749311     0.11700
H2448       H  0.59386855  0.40586923  0.35778566     0.13700
C2449       C  0.58351519  0.14533292  0.31010189     0.19800
C2450       C  0.58748692  0.13860201  0.32262583    -0.18300
C2451       C  0.59771866  0.16508984  0.33156034    -0.10600
C2452       C  0.60380948  0.19895158  0.32816070     0.22000
C2453       C  0.60052092  0.20594064  0.31559299    -0.20000
C2454       C  0.59028522  0.17939072  0.30663237    -0.10800
C2455       C  0.61449300  0.22791323  0.33732262    -0.15000
C2456       C  0.60962122  0.22277150  0.34972984    -0.28800
C2457       C  0.56999485  0.11528039  0.30130193    -0.03100
C2458       C  0.57018940  0.11797115  0.28876418    -0.39600
H2459       H  0.58249438  0.11259272  0.32554026     0.13200
H2460       H  0.60108943  0.15885647  0.34103911     0.12800
H2461       H  0.60530781  0.23191124  0.31272865     0.12200
H2462       H  0.58691117  0.18552715  0.29714116     0.12500
H2463       H  0.62646652  0.25474923  0.33361358     0.15200
H2464       H  0.59673848  0.19631511  0.35371975     0.14000
H2465       H  0.55860155  0.08907975  0.30553137     0.11700
H2466       H  0.58233100  0.14355266  0.28411656     0.13700
C2467       C  0.85340444  0.42785429  0.31133966     0.19800
C2468       C  0.82434436  0.43223872  0.31245053    -0.18300
C2469       C  0.80498099  0.42294038  0.32350237    -0.10600
C2470       C  0.81364143  0.40792487  0.33360497     0.22000
C2471       C  0.84277244  0.40356115  0.33248539    -0.20000
C2472       C  0.86235301  0.41318747  0.32145249    -0.10800
C2473       C  0.79219778  0.39578623  0.34521594    -0.15000
C2474       C  0.75809581  0.38470409  0.34493399    -0.28800
C2475       C  0.87442715  0.43959669  0.29968065    -0.03100
C2476       C  0.90898058  0.45355300  0.29996479    -0.39600
H2477       H  0.81710957  0.44372271  0.30485222     0.13200
H2478       H  0.78352458  0.42804175  0.32410622     0.12800
H2479       H  0.84999362  0.39203520  0.34007216     0.12200
H2480       H  0.88419139  0.40866693  0.32081040     0.12500
H2481       H  0.80393841  0.39374902  0.35383168     0.15200
H2482       H  0.74610361  0.38447014  0.33610126     0.14000
H2483       H  0.86175208  0.43892439  0.29094764     0.11700
H2484       H  0.92164399  0.45622421  0.30887156     0.13700
C2485       C  0.77729324  0.05856395  0.43197941     0.19800
C2486       C  0.79309289  0.04948133  0.42243427    -0.18300
C2487       C  0.77844605  0.52170695  0.41575251    -0.10600
C2488       C  0.74244431  0.49986752  0.41769632     0.22000
C2489       C  0.72246097  0.00510636  0.42742772    -0.20000
C2490       C  0.74152333  0.03623168  0.43426704    -0.10800
C2491       C  0.72105727  0.46688920  0.41044016    -0.15000
C2492       C  0.73419357  0.44825076  0.40496707    -0.28800
C2493       C  0.79871819  0.09166230  0.43919248    -0.03100
C2494       C  0.79051203  0.09633493  0.45084839    -0.39600
H2495       H  0.82040029  0.06647203  0.42030357     0.13200
H2496       H  0.79202118  0.51557480  0.40867407     0.12800
H2497       H  0.69502843  0.98840224  0.42942633     0.12200
H2498       H  0.72792563  0.04284373  0.44118560     0.12500
H2499       H  0.69323888  0.45686904  0.41001013     0.15200
H2500       H  0.76162742  0.45690318  0.40580670     0.14000
H2501       H  0.82302585  0.11177661  0.43508021     0.11700
H2502       H  0.76752579  0.07526151  0.45529795     0.13700
C2503       C  0.50017094  0.26769271  0.41864970     0.19800
C2504       C  0.48897550  0.28349157  0.42752282    -0.18300
C2505       C  0.95787610  0.26364808  0.43475691    -0.10600
C2506       C  0.93634426  0.22735748  0.43211909     0.22000
C2507       C  0.94537067  0.21261071  0.42220550    -0.20000
C2508       C  0.97594307  0.23293890  0.41544316    -0.10800
C2509       C  0.90421580  0.20391476  0.43933132    -0.15000
C2510       C  0.89912694  0.21022276  0.45117103    -0.28800
C2511       C  0.53362340  0.28943940  0.41192019    -0.03100
C2512       C  0.55257321  0.27506339  0.40793171    -0.39600
H2513       H  0.50430957  0.31161370  0.42935544     0.13200
H2514       H  0.95112312  0.27641204  0.44200213     0.12800
H2515       H  0.92892955  0.18500825  0.41978748     0.12200
H2516       H  0.48590724  0.21840214  0.40902902     0.12500
H2517       H  0.88528905  0.17925160  0.43503208     0.15200
H2518       H  0.91899566  0.23360356  0.45580789     0.14000
H2519       H  0.54287148  0.31743337  0.41035646     0.11700
H2520       H  0.54396683  0.24747970  0.41004948     0.13700
C2521       C  0.74693180  0.26405658  0.42338357     0.19800
C2522       C  0.78166864  0.27550220  0.42626852    -0.18300
C2523       C  0.79011635  0.25656243  0.43476631    -0.10600
C2524       C  0.76385039  0.22561793  0.44057123     0.22000
C2525       C  0.72906871  0.21519684  0.43817471    -0.20000
C2526       C  0.72061420  0.23415905  0.42967985    -0.10800
C2527       C  0.77202721  0.20435792  0.44937699    -0.15000
C2528       C  0.80229991  0.20448726  0.44887305    -0.28800
C2529       C  0.73891221  0.28412252  0.41396857    -0.03100
C2530       C  0.70972281  0.26857636  0.40720856    -0.39600
H2531       H  0.80236301  0.29892171  0.42180949     0.13200
H2532       H  0.81724757  0.26651014  0.43683180     0.12800
H2533       H  0.70837789  0.19208517  0.44278033     0.12200
H2534       H  0.69344905  0.22546292  0.42818848     0.12500
H2535       H  0.75257031  0.18774345  0.45623289     0.15200
H2536       H  0.82002299  0.21762498  0.44115138     0.14000
H2537       H  0.75756762  0.31197724  0.41243806     0.11700
H2538       H  0.69160218  0.24048622  0.40841766     0.13700
O2539       O  0.69959781  0.85428302  0.35296372    -0.77400
C2540       C  0.62004391  0.74941364  0.35851698     0.83600
O2541       O  0.61983807  0.87635349  0.37351695    -0.78500
O2542       O  0.59199239  0.76906021  0.39501273    -0.80000
O2543       O  0.71902502  0.81601688  0.39461199    -0.79800
O2544       O  0.74126752  0.86536037  0.36668071    -0.78400
Zn2545     Zn  0.65439370  0.82876299  0.36151938     1.55700
O2546       O  0.66604079  0.76838719  0.39594708    -0.79800
Cd2547     Cd  0.71086032  0.85063820  0.38318229     1.59700
Cd2548     Cd  0.63890822  0.85588666  0.38712590     1.59600
O2549       O  0.72550850  0.89631591  0.39342460    -0.79800
O2550       O  0.66007659  0.82904256  0.37918288    -1.90300
Cd2551     Cd  0.63484741  0.77874448  0.38476611     1.59900
O2552       O  0.67689425  0.89836005  0.39725702    -0.79800
O2553       O  0.61899364  0.74324554  0.37015115    -0.78400
C2554       C  0.61687081  0.87076370  0.36180424     0.84100
C2555       C  0.73130523  0.86606760  0.35554605     0.83700
O2556       O  0.63189184  0.78062802  0.35428892    -0.77400
C2557       C  0.69799109  0.78503090  0.39887249     0.84600
O2558       O  0.62788420  0.85206397  0.35657873    -0.77500
C2559       C  0.70966562  0.91099834  0.39837166     0.84700
C2560       C  0.58078576  0.78821833  0.39978797     0.85000
O2561       O  0.59631072  0.82183273  0.39826892    -0.79900
O2562       O  0.53784780  0.55758529  0.28588879    -0.77400
C2563       C  0.93226558  0.97024267  0.28966571     0.83600
O2564       O  0.53335505  0.94850005  0.27192673    -0.78500
O2565       O  0.92751677  0.93309219  0.25112853    -0.80000
O2566       O  0.99515525  0.56087202  0.24742288    -0.79800
O2567       O  0.55262913  0.58942851  0.26844711    -0.78400
Zn2568     Zn  0.00787287  0.00377135  0.28171636     1.55700
O2569       O  0.94114913  0.51681397  0.25127065    -0.79800
Cd2570     Cd  0.52604023  0.54872692  0.25567327     1.59700
Cd2571     Cd  0.51535306  0.96788534  0.25767158     1.59600
O2572       O  0.56159376  0.54824412  0.24311719    -0.79800
O2573       O  0.99866204  0.99913978  0.26417043    -1.90300
Cd2574     Cd  0.94732117  0.97951739  0.26151086     1.59900
O2575       O  0.55375002  0.49355733  0.24488990    -0.79800
O2576       O  0.92028014  0.96702422  0.27862882    -0.78400
C2577       C  0.53871933  0.95752411  0.28334994     0.84100
C2578       C  0.55351678  0.58723041  0.28026880     0.83700
O2579       O  0.96451033  0.98359725  0.29166799    -0.77400
C2580       C  0.96233365  0.54693016  0.24642781     0.84600
O2581       O  0.53157239  0.98014406  0.28780918    -0.77500
C2582       C  0.56933400  0.52457740  0.24015471     0.84700
C2583       C  0.94075734  0.91498423  0.24692369     0.85000
O2584       O  0.97255455  0.92406830  0.24865706    -0.79900
C2585       C  0.67077552  0.83540312  0.80567346     0.46500
H2586       H  0.67065012  0.83521685  0.81603647    -0.02500
C2587       C  0.67110612  0.83603426  0.78149138     0.46600
H2588       H  0.67189736  0.83620774  0.77113490    -0.02500
C2589       C  0.65433718  0.85634413  0.79993294    -0.16200
C2590       C  0.70770901  0.85217003  0.79991427    -0.15900
C2591       C  0.65045210  0.79798480  0.79993062    -0.16300
C2592       C  0.65464030  0.85657929  0.78708561    -0.16300
C2593       C  0.70723419  0.85224335  0.78708549    -0.15900
C2594       C  0.65103645  0.79884391  0.78708105    -0.16200
C2595       C  0.00064620  0.49917914  0.83195751     0.46500
H2596       H  0.00182859  0.50060339  0.82160339    -0.02500
C2597       C  0.99767558  0.49554468  0.85612402     0.46600
H2598       H  0.99581419  0.49410462  0.86645428    -0.02500
C2599       C  0.52126058  0.53744521  0.83786800    -0.16200
C2600       C  0.96391462  0.98181660  0.83566596    -0.15900
C2601       C  0.51832206  0.97952766  0.83566050    -0.16300
C2602       C  0.51960138  0.53523346  0.85071959    -0.16300
C2603       C  0.96327480  0.97973015  0.84850092    -0.15900
C2604       C  0.51672360  0.97709233  0.84847586    -0.16200
C2605       C  0.66357333  0.83042765  0.50006214     0.46500
H2606       H  0.66627144  0.83181218  0.48973843    -0.02500
C2607       C  0.65694931  0.82699466  0.52416746     0.46600
H2608       H  0.65493390  0.82559169  0.53449970    -0.02500
C2609       C  0.68123222  0.81163419  0.50641101    -0.16200
C2610       C  0.67970635  0.86712297  0.50630847    -0.15900
C2611       C  0.62533819  0.81031765  0.50463327    -0.16300
C2612       C  0.67746082  0.80989554  0.51919342    -0.16300
C2613       C  0.67593717  0.86490217  0.51909745    -0.15900
C2614       C  0.62215076  0.80858466  0.51741849    -0.16200
C2615       C  0.83254063  0.66783547  0.47726685     0.46500
H2616       H  0.83159853  0.66754422  0.48762763    -0.02500
C2617       C  0.83482389  0.66862087  0.45303829     0.46600
H2618       H  0.83514271  0.66918445  0.44269905    -0.02500
C2619       C  0.81553664  0.68774590  0.47126543    -0.16200
C2620       C  0.86983217  0.68573921  0.47188983    -0.15900
C2621       C  0.81368607  0.63067440  0.47150238    -0.16300
C2622       C  0.81730343  0.68847068  0.45840333    -0.16300
C2623       C  0.87085038  0.68655903  0.45906436    -0.15900
C2624       C  0.81460159  0.63103143  0.45866892    -0.16200
O2625       O  0.89273464  0.69623284  0.57641887    -0.77400
C2626       C  0.80376705  0.59057376  0.57359347     0.83600
O2627       O  0.79214252  0.70773507  0.58526245    -0.78500
O2628       O  0.75540313  0.60115229  0.60896990    -0.80000
O2629       O  0.87450318  0.64598969  0.61837993    -0.79800
O2630       O  0.91750060  0.70466669  0.59505231    -0.78400
Zn2631     Zn  0.84135864  0.66963914  0.57915147     1.55700
O2632       O  0.82609795  0.59620522  0.61346687    -0.79800
Cd2633     Cd  0.87413430  0.68375605  0.60668277     1.59700
Cd2634     Cd  0.80402920  0.68848576  0.60123822     1.59600
O2635       O  0.87841717  0.72422933  0.61780954    -0.79800
O2636       O  0.83034707  0.66356894  0.59675472    -1.90300
Cd2637     Cd  0.80164258  0.61184668  0.60058340     1.59900
O2638       O  0.83353932  0.73143707  0.61272998    -0.79800
O2639       O  0.79267669  0.58140912  0.58473430    -0.78400
C2640       C  0.80210635  0.70925064  0.57397945     0.84100
C2641       C  0.91965593  0.70790304  0.58321787     0.81900
O2642       O  0.82255395  0.62291188  0.57044920    -0.77400
C2643       C  0.85377649  0.61286459  0.61981676     0.84600
O2644       O  0.82104858  0.69631862  0.57068971    -0.77500
C2645       C  0.86128459  0.74048297  0.61883799     0.84700
C2646       C  0.74379015  0.62065758  0.61316781     0.85000
O2647       O  0.75918741  0.65405139  0.61116451    -0.79900
O2648       O  0.52226952  0.54193397  0.73811622    -0.77400
C2649       C  0.92685676  0.95264055  0.73380689     0.83600
O2650       O  0.54954266  0.96315670  0.71675192    -0.78500
O2651       O  0.94062374  0.93274166  0.69561205    -0.80000
O2652       O  0.98874933  0.55943312  0.69758656    -0.79800
O2653       O  0.53481115  0.58137931  0.72289824    -0.78400
Zn2654     Zn  0.50505333  0.49528627  0.72986833     1.55700
O2655       O  0.93921474  0.50769415  0.69691371    -0.79800
Cd2656     Cd  0.52159284  0.54914229  0.70738958     1.59700
Cd2657     Cd  0.52597446  0.97967359  0.70342216     1.59600
O2658       O  0.56397525  0.56553002  0.69561702    -0.79800
O2659       O  0.50126436  0.49825313  0.71209212    -1.90300
Cd2660     Cd  0.95044306  0.97491895  0.70686656     1.59900
O2661       O  0.56467572  0.51570234  0.69133118    -0.79800
O2662       O  0.91872256  0.95354901  0.72246306    -0.78400
C2663       C  0.54977452  0.96560811  0.72862809     0.84100
C2664       C  0.53284853  0.57343973  0.73443567     0.83700
O2665       O  0.95821488  0.96800459  0.73738392    -0.77400
C2666       C  0.95766353  0.54033353  0.69387531     0.84600
O2667       O  0.53351673  0.97863942  0.73426255    -0.77500
C2668       C  0.57593782  0.54871055  0.68958502     0.84700
C2669       C  0.95962656  0.92207189  0.69047097     0.85000
O2670       O  0.99232252  0.93694708  0.69228295    -0.79900
C2671       C  0.83157646  0.66251790  0.16724853     0.46500
H2672       H  0.83169717  0.66111880  0.15690298    -0.02500
C2673       C  0.83129811  0.66603216  0.19142728     0.46600
H2674       H  0.83078546  0.66698520  0.20176111    -0.02500
C2675       C  0.84793010  0.64260812  0.17370058    -0.16200
C2676       C  0.85171435  0.70073637  0.17226504    -0.15900
C2677       C  0.79482247  0.64661372  0.17290024    -0.16300
C2678       C  0.84727059  0.64413143  0.18650310    -0.16300
C2679       C  0.85155030  0.70244502  0.18508178    -0.15900
C2680       C  0.79489684  0.64879286  0.18573222    -0.16200
C2681       C  0.00156270  0.00052021  0.11956062     0.46500
H2682       H  0.00059200  0.00129379  0.10924186    -0.02500
C2683       C  0.00468481  0.00035025  0.14375809     0.46600
H2684       H  0.00603814  0.00021711  0.15410497    -0.02500
C2685       C  0.98512592  0.52095552  0.12602755    -0.16200
C2686       C  0.98379749  0.96309654  0.12524114    -0.15900
C2687       C  0.53808912  0.51965904  0.12423859    -0.16300
C2688       C  0.98647380  0.52066141  0.13883392    -0.16300
C2689       C  0.98528627  0.96288329  0.13806912    -0.15900
C2690       C  0.54021326  0.52118676  0.13708794    -0.16200
O2691       O  0.68861011  0.88277020  0.95537204    -0.77400
C2692       C  0.58985061  0.78608801  0.94797630     0.83600
O2693       O  0.72269976  0.80482884  0.93697172    -0.78500
O2694       O  0.62058545  0.77038326  0.90967348    -0.80000
O2695       O  0.65567797  0.89628422  0.91510055    -0.79800
O2696       O  0.70759824  0.92083959  0.93945230    -0.78400
Zn2697     Zn  0.66889298  0.83428676  0.94733899     1.55700
O2698       O  0.60951270  0.84285282  0.91203475    -0.79800
Cd2699     Cd  0.69153627  0.88803363  0.92422511     1.59700
Cd2700     Cd  0.70145820  0.81958991  0.92251100     1.59600
O2701       O  0.73329741  0.90400955  0.91229154    -0.79800
O2702       O  0.67077819  0.83735447  0.92917522    -1.90300
Cd2703     Cd  0.62293800  0.80939486  0.92174257     1.59900
O2704       O  0.74082141  0.85711698  0.91117804    -0.79800
O2705       O  0.58668617  0.78504019  0.93612685    -0.78400
C2706       C  0.71759935  0.80336596  0.94871469     0.84100
C2707       C  0.70361381  0.91437239  0.95109455     0.83700
O2708       O  0.61936195  0.80370819  0.95322003    -0.77400
C2709       C  0.62548026  0.87653835  0.91072470     0.84600
O2710       O  0.69742068  0.81300218  0.95362456    -0.77500
C2711       C  0.74926914  0.88874422  0.90805030     0.84700
C2712       C  0.64260350  0.76050734  0.90700410     0.85000
O2713       O  0.67317589  0.77582639  0.91147464    -0.79900
O2714       O  0.88422566  0.68488462  0.01938002    -0.77400
C2715       C  0.78651592  0.58697065  0.02678253     0.83600
O2716       O  0.80655036  0.72164344  0.03662247    -0.78500
O2717       O  0.76890452  0.62072152  0.06438255    -0.80000
O2718       O  0.88997774  0.64941888  0.06205169    -0.79800
O2719       O  0.91966046  0.69694976  0.03554116    -0.78400
Zn2720     Zn  0.83642689  0.66717742  0.02708253     1.55700
O2721       O  0.83533551  0.60467492  0.06309481    -0.79800
Cd2722     Cd  0.88695433  0.68662399  0.05076330     1.59700
Cd2723     Cd  0.82180181  0.70185279  0.05140999     1.59600
O2724       O  0.90562575  0.73344212  0.06062044    -0.79800
O2725       O  0.83794716  0.66908159  0.04525502    -1.90300
Cd2726     Cd  0.80662473  0.62096920  0.05263759     1.59900
O2727       O  0.86128312  0.74400908  0.06073296    -0.79800
O2728       O  0.78291119  0.58398713  0.03859674    -0.78400
C2729       C  0.80639782  0.71692802  0.02490028     0.84100
C2730       C  0.91439777  0.69531730  0.02382615     0.83700
O2731       O  0.80595121  0.61676546  0.02148113    -0.77400
C2732       C  0.86734519  0.61864244  0.06590576     0.84600
O2733       O  0.81692140  0.69701671  0.02019072    -0.77500
C2734       C  0.89228961  0.75242413  0.06363901     0.84700
C2735       C  0.76251016  0.64501010  0.06779472     0.85000
O2736       O  0.78021866  0.67669395  0.06372669    -0.79900
C2737       C  0.74995343  0.77583738  0.97795175     0.19800
C2738       C  0.74933201  0.78197387  0.99076622    -0.18300
C2739       C  0.76339641  0.76851092  0.99941461    -0.10600
C2740       C  0.77848038  0.74834096  0.99543273     0.22000
C2741       C  0.77944657  0.74255492  0.98259624    -0.20000
C2742       C  0.76532810  0.75598750  0.97394738    -0.10800
C2743       C  0.79263508  0.73195030  0.00418489    -0.15000
C2744       C  0.79332745  0.73506093  0.01669611    -0.28800
C2745       C  0.73305197  0.78950477  0.96929122    -0.03100
C2746       C  0.73567566  0.79001459  0.95675725    -0.39600
H2747       H  0.73760104  0.79707468  0.99414231     0.13200
H2748       H  0.76183761  0.77384146  0.00914042     0.12800
H2749       H  0.79076078  0.72706274  0.97922536     0.12200
H2750       H  0.76597762  0.74994590  0.96422830     0.12500
H2751       H  0.80260660  0.71595748  0.00006978     0.15200
H2752       H  0.78396432  0.75089997  0.02124061     0.14000
H2753       H  0.71772411  0.79994996  0.97352109     0.11700
H2754       H  0.75160427  0.78097972  0.95215672     0.13700
C2755       C  0.75799162  0.52390233  0.99847520     0.19800
C2756       C  0.77193029  0.52762969  0.98644105    -0.18300
C2757       C  0.75739091  0.00554004  0.97712771    -0.10600
C2758       C  0.72914545  0.97247406  0.98062865     0.22000
C2759       C  0.71536833  0.96832823  0.99271239    -0.20000
C2760       C  0.72989474  0.49081215  0.00208841    -0.10800
C2761       C  0.71426414  0.94155794  0.97208740    -0.15000
C2762       C  0.71733191  0.94490276  0.95960359    -0.28800
C2763       C  0.77358814  0.55545861  0.00672590    -0.03100
C2764       C  0.76811592  0.55470646  0.01911262    -0.39600
H2765       H  0.79375217  0.55264310  0.98342932     0.13200
H2766       H  0.76959533  0.00968688  0.96806814     0.12800
H2767       H  0.69365057  0.94315798  0.99564996     0.12200
H2768       H  0.71797618  0.48674357  0.01119131     0.12500
H2769       H  0.69974978  0.91525213  0.97620720     0.15200
H2770       H  0.73009199  0.97097682  0.95529861     0.14000
H2771       H  0.79170019  0.58063285  0.00237448     0.11700
H2772       H  0.75125791  0.52999606  0.02391094     0.13700
C2773       C  0.52865071  0.74917325  0.97674145     0.19800
C2774       C  0.03463942  0.75247396  0.98952844    -0.18300
C2775       C  0.00724002  0.73896980  0.99813354    -0.10600
C2776       C  0.97253359  0.71966286  0.99410241     0.22000
C2777       C  0.96627336  0.71400095  0.98123754    -0.20000
C2778       C  0.49546732  0.74221177  0.97300114    -0.10800
C2779       C  0.94220960  0.70647783  0.00284140    -0.15000
C2780       C  0.94459573  0.70637776  0.01538737    -0.28800
C2781       C  0.55960489  0.76617184  0.96834853    -0.03100
C2782       C  0.55817211  0.76680782  0.95578987    -0.39600
H2783       H  0.06096722  0.76761194  0.99297056     0.13200
H2784       H  0.01373702  0.74471897  0.00785545     0.12800
H2785       H  0.93989565  0.69922039  0.97781978     0.12200
H2786       H  0.49091481  0.74834958  0.96365774     0.12500
H2787       H  0.91672180  0.69674916  0.99872362     0.15200
H2788       H  0.96936348  0.71487186  0.01983115     0.14000
H2789       H  0.58491157  0.77870526  0.97279335     0.11700
H2790       H  0.53339144  0.75320808  0.95105125     0.13700
C2791       C  0.95663559  0.89758653  0.09782326     0.19800
C2792       C  0.97418759  0.88954520  0.08864949    -0.18300
C2793       C  0.95628303  0.85909032  0.08138318    -0.10600
C2794       C  0.92034734  0.83647366  0.08308683     0.22000
C2795       C  0.90267211  0.84526081  0.09195852    -0.20000
C2796       C  0.92057753  0.87539642  0.09928917    -0.10800
C2797       C  0.90012791  0.80419329  0.07553646    -0.15000
C2798       C  0.91366627  0.78515247  0.07073737    -0.28800
C2799       C  0.97601938  0.92972223  0.10553841    -0.03100
C2800       C  0.96704862  0.93063180  0.11744955    -0.39600
H2801       H  0.00183549  0.90665475  0.08720166     0.13200
H2802       H  0.97048460  0.85369545  0.07432729     0.12800
H2803       H  0.87490583  0.82859227  0.09328214     0.12200
H2804       H  0.90602283  0.88155863  0.10596028     0.12500
H2805       H  0.87253865  0.79474719  0.07445309     0.15200
H2806       H  0.94066345  0.79294680  0.07237541     0.14000
H2807       H  0.99864791  0.95230079  0.10146446     0.11700
H2808       H  0.94666563  0.90641112  0.12150028     0.13700
C2809       C  0.92162664  0.59001634  0.08582225     0.19800
C2810       C  0.95024628  0.60794245  0.09373716    -0.18300
C2811       C  0.96181427  0.58917783  0.10103003    -0.10600
C2812       C  0.94505980  0.55197333  0.10046456     0.22000
C2813       C  0.91693471  0.53409956  0.09235403    -0.20000
C2814       C  0.90520711  0.55283524  0.08512935    -0.10800
C2815       C  0.95713662  0.53119121  0.10779862    -0.15000
C2816       C  0.97310350  0.54201566  0.11883440    -0.28800
C2817       C  0.91056356  0.61096690  0.07805051    -0.03100
C2818       C  0.87798119  0.59783351  0.07379092    -0.39600
H2819       H  0.96370268  0.63658654  0.09428041     0.13200
H2820       H  0.98432809  0.60395274  0.10686225     0.12800
H2821       H  0.90398280  0.50551206  0.09160614     0.12200
H2822       H  0.88385503  0.53812711  0.07881640     0.12500
H2823       H  0.95113408  0.50535136  0.10430423     0.15200
H2824       H  0.97657292  0.56631724  0.12293640     0.14000
H2825       H  0.92965695  0.63844878  0.07608964     0.11700
H2826       H  0.85809188  0.57112319  0.07628602     0.13700
C2827       C  0.68384103  0.59482179  0.09032460     0.19800
C2828       C  0.65929929  0.55887395  0.09206200    -0.18300
C2829       C  0.63098020  0.54839098  0.10012491    -0.10600
C2830       C  0.62631020  0.57372692  0.10668518     0.22000
C2831       C  0.65135250  0.60965496  0.10523498    -0.20000
C2832       C  0.67976399  0.62017766  0.09714656    -0.10800
C2833       C  0.59667596  0.56343981  0.11551931    -0.15000
C2834       C  0.56728428  0.53179048  0.11514928    -0.28800
C2835       C  0.71348000  0.60425914  0.08156819    -0.03100
C2836       C  0.73386399  0.63688009  0.07672242    -0.39600
H2837       H  0.66202369  0.53868047  0.08713872     0.13200
H2838       H  0.61329119  0.52033335  0.10133063     0.12800
H2839       H  0.64890766  0.62970170  0.11037477     0.12200
H2840       H  0.69857029  0.64808536  0.09646218     0.12500
H2841       H  0.59903563  0.58252700  0.12250291     0.15200
H2842       H  0.56287419  0.51415898  0.10739574     0.14000
H2843       H  0.71795532  0.58294877  0.07865038     0.11700
H2844       H  0.72931381  0.65843751  0.07910171     0.13700
C2845       C  0.92882256  0.55787513  0.15193433     0.19800
C2846       C  0.89725284  0.55490669  0.14802373    -0.18300
C2847       C  0.88391088  0.57465289  0.15366307    -0.10600
C2848       C  0.90199823  0.59824401  0.16339387     0.22000
C2849       C  0.93330822  0.60081822  0.16744749    -0.20000
C2850       C  0.94667026  0.58104838  0.16180019    -0.10800
C2851       C  0.88894861  0.61978382  0.16987294    -0.15000
C2852       C  0.86103017  0.62240399  0.16638570    -0.28800
C2853       C  0.94242615  0.53750383  0.14499788    -0.03100
C2854       C  0.97268508  0.53814191  0.14727325    -0.39600
H2855       H  0.88283267  0.53731587  0.14046053     0.13200
H2856       H  0.85938446  0.57100163  0.15035210     0.12800
H2857       H  0.94770661  0.61844489  0.17500504     0.12200
H2858       H  0.97106307  0.58446077  0.16516256     0.12500
H2859       H  0.90346466  0.63459117  0.17797102     0.15200
H2860       H  0.84787178  0.61091000  0.15771615     0.14000
H2861       H  0.92687852  0.52168462  0.13722360     0.11700
H2862       H  0.98782089  0.55108863  0.15546815     0.13700
C2863       C  0.90717012  0.79577295  0.15877208     0.19800
C2864       C  0.94254006  0.82159674  0.15910186    -0.18300
C2865       C  0.95410646  0.85624155  0.15488683    -0.10600
C2866       C  0.93040100  0.86614825  0.15031482     0.22000
C2867       C  0.89506394  0.84019733  0.14983268    -0.20000
C2868       C  0.88349286  0.80553126  0.15404475    -0.10800
C2869       C  0.94142115  0.90221789  0.14514878    -0.15000
C2870       C  0.97387246  0.93026420  0.14576702    -0.28800
C2871       C  0.89604736  0.76030530  0.16449604    -0.03100
C2872       C  0.86369466  0.73220104  0.16392094    -0.39600
H2873       H  0.96140089  0.81500640  0.16274048     0.13200
H2874       H  0.98165185  0.87484057  0.15514903     0.12800
H2875       H  0.87619188  0.84682105  0.14622956     0.12200
H2876       H  0.85593604  0.78693050  0.15381853     0.12500
H2877       H  0.92207873  0.90547789  0.14001758     0.15200
H2878       H  0.99317277  0.92967043  0.15176803     0.14000
H2879       H  0.91514006  0.75768489  0.17003444     0.11700
H2880       H  0.84472258  0.73212486  0.15756367     0.13700
C2881       C  0.70127814  0.60806887  0.15973923     0.19800
C2882       C  0.67416943  0.61571812  0.16100446    -0.18300
C2883       C  0.64190004  0.59431326  0.15539824    -0.10600
C2884       C  0.63579391  0.56428600  0.14848363     0.22000
C2885       C  0.66298221  0.55685985  0.14711456    -0.20000
C2886       C  0.69520024  0.57820161  0.15272927    -0.10800
C2887       C  0.60229570  0.54117308  0.14202442    -0.15000
C2888       C  0.57247262  0.54096897  0.14454771    -0.28800
C2889       C  0.73442172  0.63035035  0.16655283    -0.03100
C2890       C  0.76364602  0.62866443  0.16478058    -0.39600
H2891       H  0.67795618  0.63839918  0.16637647     0.13200
H2892       H  0.62216735  0.60181580  0.15639148     0.12800
H2893       H  0.65916698  0.53412668  0.14176900     0.12200
H2894       H  0.71478293  0.57051981  0.15172653     0.12500
H2895       H  0.60228093  0.52376999  0.13478592     0.15200
H2896       H  0.57072929  0.55497578  0.15260360     0.14000
H2897       H  0.73442000  0.64817554  0.17361642     0.11700
H2898       H  0.76572700  0.61417663  0.15694941     0.13700
C2899       C  0.90723310  0.55658826  0.66799693     0.19800
C2900       C  0.89186748  0.53816213  0.65699175    -0.18300
C2901       C  0.88441054  0.55471547  0.64722068    -0.10600
C2902       C  0.89183454  0.59003243  0.64835438     0.22000
C2903       C  0.90662739  0.60820797  0.65944451    -0.20000
C2904       C  0.91396567  0.59164978  0.66920951    -0.10800
C2905       C  0.88534404  0.60915249  0.63814623    -0.15000
C2906       C  0.86128738  0.59284673  0.62925879    -0.28800
C2907       C  0.91693782  0.53895695  0.67783372    -0.03100
C2908       C  0.94387942  0.55730466  0.68551547    -0.39600
H2909       H  0.88649121  0.51117666  0.65581541     0.13200
H2910       H  0.87372135  0.54004603  0.63872012     0.12800
H2911       H  0.91238951  0.63533347  0.66058587     0.12200
H2912       H  0.92478237  0.60640641  0.67768761     0.12500
H2913       H  0.89963834  0.63794171  0.63837902     0.15200
H2914       H  0.84502746  0.56423503  0.62933045     0.14000
H2915       H  0.90388059  0.51018201  0.67795513     0.11700
H2916       H  0.95900560  0.58594987  0.68474306     0.13700
C2917       C  0.93947045  0.85984813  0.66277169     0.19800
C2918       C  0.94152200  0.86622126  0.64987848    -0.18300
C2919       C  0.92506139  0.83799473  0.64156236    -0.10600
C2920       C  0.90723761  0.80297030  0.64605183     0.22000
C2921       C  0.90558580  0.79660342  0.65892057    -0.20000
C2922       C  0.92113128  0.82481678  0.66724083    -0.10800
C2923       C  0.89277287  0.77262404  0.63745659    -0.15000
C2924       C  0.87417163  0.77085970  0.62735531    -0.28800
C2925       C  0.95747312  0.88988420  0.67143454    -0.03100
C2926       C  0.94268216  0.89137619  0.68216848    -0.39600
H2927       H  0.95575675  0.89304883  0.64626340     0.13200
H2928       H  0.92724431  0.84341116  0.63163541     0.12800
H2929       H  0.89232284  0.76972588  0.66252301     0.12200
H2930       H  0.91970825  0.81921411  0.67714052     0.12500
H2931       H  0.89646626  0.75037670  0.63980207     0.15200
H2932       H  0.86756230  0.79140005  0.62555478     0.14000
H2933       H  0.98227364  0.91222086  0.66857815     0.11700
H2934       H  0.91628136  0.87095641  0.68439771     0.13700
C2935       C  0.67884502  0.60422651  0.63967048     0.19800
C2936       C  0.68353844  0.62214333  0.65098577    -0.18300
C2937       C  0.66106167  0.60565460  0.66108067    -0.10600
C2938       C  0.63299706  0.57089794  0.66000183     0.22000
C2939       C  0.62786784  0.55328010  0.64859520    -0.20000
C2940       C  0.65032819  0.56977631  0.63850184    -0.10800
C2941       C  0.60894916  0.55187102  0.67056464    -0.15000
C2942       C  0.60291859  0.56837433  0.68003159    -0.28800
C2943       C  0.70504387  0.62176030  0.62955527    -0.03100
C2944       C  0.71245033  0.60352950  0.62114901    -0.39600
H2945       H  0.70533503  0.64864903  0.65214902     0.13200
H2946       H  0.66638009  0.61990519  0.66977270     0.12800
H2947       H  0.60631266  0.52661220  0.64747810     0.12200
H2948       H  0.64523002  0.55543913  0.62983376     0.12500
H2949       H  0.59387338  0.52313787  0.67008486     0.15200
H2950       H  0.61560133  0.59706712  0.68019550     0.14000
H2951       H  0.72155541  0.65037008  0.62996243     0.11700
H2952       H  0.69808702  0.57478864  0.62125943     0.13700
C2953       C  0.76530798  0.50093220  0.55659066     0.19800
C2954       C  0.73350434  0.96855118  0.55890698    -0.18300
C2955       C  0.72117161  0.94168061  0.55004619    -0.10600
C2956       C  0.73498216  0.94864267  0.53787729     0.22000
C2957       C  0.76212314  0.98262579  0.53489983    -0.20000
C2958       C  0.78071253  0.50732263  0.54464689    -0.10800
C2959       C  0.72205713  0.92073152  0.52823983    -0.15000
C2960       C  0.68889496  0.89447422  0.52801962    -0.28800
C2961       C  0.77676395  0.52864458  0.56634139    -0.03100
C2962       C  0.79472159  0.56357179  0.56385754    -0.39600
H2963       H  0.72223177  0.96248693  0.56818571     0.13200
H2964       H  0.70118334  0.91540635  0.55283164     0.12800
H2965       H  0.77946516  0.48634926  0.52643472     0.12200
H2966       H  0.80285917  0.53262974  0.54219493     0.12500
H2967       H  0.73996030  0.92223823  0.52101186     0.15200
H2968       H  0.67082673  0.89253836  0.53522714     0.14000
H2969       H  0.76841818  0.51993135  0.57587684     0.11700
H2970       H  0.80243445  0.57309906  0.55438290     0.13700
C2971       C  0.99118544  0.74753007  0.55782606     0.19800
C2972       C  0.48808705  0.74275905  0.54396629    -0.18300
C2973       C  0.51858795  0.75970087  0.53687512    -0.10600
C2974       C  0.55093171  0.77907053  0.54275792     0.22000
C2975       C  0.55205982  0.78146372  0.55580090    -0.20000
C2976       C  0.52157482  0.76440389  0.56290489    -0.10800
C2977       C  0.58380570  0.79850470  0.53560714    -0.15000
C2978       C  0.58874505  0.78839307  0.52431072    -0.28800
C2979       C  0.95765741  0.73003161  0.56473733    -0.03100
C2980       C  0.95427593  0.72569323  0.57721314    -0.39600
H2981       H  0.46347930  0.72825385  0.53918524     0.13200
H2982       H  0.51660650  0.75828510  0.52681460     0.12800
H2983       H  0.57667924  0.79666556  0.56051814     0.12200
H2984       H  0.02537043  0.77266142  0.57360524     0.12500
H2985       H  0.60473013  0.82184399  0.53994115     0.15200
H2986       H  0.56805805  0.76486703  0.52000030     0.14000
H2987       H  0.93427679  0.71961543  0.55912561     0.11700
H2988       H  0.97680356  0.73481089  0.58315783     0.13700
C2989       C  0.73747206  0.78791802  0.53860734     0.19800
C2990       C  0.76625357  0.78376657  0.53606779    -0.18300
C2991       C  0.77853978  0.76933892  0.54506698    -0.10600
C2992       C  0.76219795  0.75883577  0.55683895     0.22000
C2993       C  0.73433638  0.76439354  0.55951298    -0.20000
C2994       C  0.72209419  0.77877741  0.55053667    -0.10800
C2995       C  0.77351337  0.74250873  0.56664928    -0.15000
C2996       C  0.79183887  0.72620233  0.56421168    -0.28800
C2997       C  0.72438957  0.80239344  0.52877498    -0.03100
C2998       C  0.69088134  0.79385809  0.52820917    -0.39600
H2999       H  0.77896991  0.79127326  0.52703852     0.13200
H3000       H  0.80096755  0.76686565  0.54276147     0.12800
H3001       H  0.72173820  0.75726666  0.56856728     0.12200
H3002       H  0.70084544  0.78305216  0.55306047     0.12500
H3003       H  0.76517446  0.74263767  0.57617937     0.15200
H3004       H  0.79935606  0.72454210  0.55471850     0.14000
H3005       H  0.74246792  0.81978204  0.52169762     0.11700
H3006       H  0.67256774  0.77658717  0.53521989     0.13700
C3007       C  0.76933259  0.53347135  0.48379769     0.19800
C3008       C  0.77525054  0.50488752  0.48213077    -0.18300
C3009       C  0.75355719  0.97150527  0.48841419    -0.10600
C3010       C  0.72387454  0.96550319  0.49519252     0.22000
C3011       C  0.71708744  0.99363033  0.49649581    -0.20000
C3012       C  0.74104696  0.52832605  0.49127969    -0.10800
C3013       C  0.70059240  0.93110059  0.50158587    -0.15000
C3014       C  0.69958953  0.90035569  0.49885662    -0.28800
C3015       C  0.79188372  0.56723970  0.47694516    -0.03100
C3016       C  0.79365325  0.59846112  0.47944088    -0.39600
H3017       H  0.79675381  0.50800000  0.47640247     0.13200
H3018       H  0.76057247  0.95110664  0.48751770     0.12800
H3019       H  0.69463734  0.98992994  0.50175888     0.12200
H3020       H  0.73490994  0.54923819  0.49258904     0.12500
H3021       H  0.68370359  0.93120822  0.50890908     0.15200
H3022       H  0.71323637  0.89872184  0.49071475     0.14000
H3023       H  0.80769362  0.56625803  0.46937021     0.11700
H3024       H  0.78114538  0.60131754  0.48769886     0.13700
C3025       C  0.96543167  0.72680875  0.48302197     0.19800
C3026       C  0.49258806  0.72368758  0.47831389    -0.18300
C3027       C  0.52602601  0.74625719  0.48287423    -0.10600
C3028       C  0.53137068  0.77121317  0.49215395     0.22000
C3029       C  0.50245513  0.77299461  0.49663263    -0.20000
C3030       C  0.97277696  0.75751796  0.48969158    -0.10800
C3031       C  0.56573245  0.79428436  0.49811309    -0.15000
C3032       C  0.59517898  0.79311746  0.49597965    -0.28800
C3033       C  0.93101361  0.70365581  0.47712862    -0.03100
C3034       C  0.90135405  0.70380686  0.47992657    -0.39600
H3035       H  0.48937654  0.70490900  0.47111315     0.13200
H3036       H  0.54729046  0.74371503  0.47912202     0.12800
H3037       H  0.50563565  0.79176588  0.50383319     0.12200
H3038       H  0.95312684  0.76495034  0.49114895     0.12500
H3039       H  0.56615505  0.81157668  0.50548250     0.15200
H3040       H  0.59731778  0.77848091  0.48821425     0.14000
H3041       H  0.93040204  0.68659511  0.46963801     0.11700
H3042       H  0.89987270  0.71765717  0.48807932     0.13700
C3043       C  0.77398131  0.74198815  0.48365273     0.19800
C3044       C  0.76372879  0.76369566  0.47740012    -0.18300
C3045       C  0.74086643  0.77297460  0.48302116    -0.10600
C3046       C  0.72805745  0.76107580  0.49515668     0.22000
C3047       C  0.73834899  0.73937253  0.50140945    -0.20000
C3048       C  0.76115145  0.73002943  0.49577429    -0.10800
C3049       C  0.70415836  0.77066367  0.50166553    -0.15000
C3050       C  0.70205221  0.79983986  0.49897758    -0.28800
C3051       C  0.79747436  0.73197504  0.47710545    -0.03100
C3052       C  0.79684435  0.70110283  0.47914440    -0.39600
H3053       H  0.77294676  0.77297614  0.46801172     0.13200
H3054       H  0.73296437  0.78894491  0.47772081     0.12800
H3055       H  0.72907282  0.72999333  0.51078416     0.12200
H3056       H  0.76899598  0.71390521  0.50101927     0.12500
H3057       H  0.68903174  0.75389401  0.50940710     0.15200
H3058       H  0.71617607  0.81641587  0.49107756     0.14000
H3059       H  0.81375631  0.74929551  0.46965938     0.11700
H3060       H  0.78138502  0.68389128  0.48673294     0.13700
C3061       C  0.87520188  0.94584384  0.86536457     0.19800
C3062       C  0.85553848  0.96150171  0.86895450    -0.18300
C3063       C  0.82888220  0.94505567  0.87781546    -0.10600
C3064       C  0.82124599  0.91234350  0.88323772     0.22000
C3065       C  0.84014182  0.89614991  0.87926065    -0.20000
C3066       C  0.86672236  0.91257656  0.87042477    -0.10800
C3067       C  0.79327440  0.89353812  0.89272189    -0.15000
C3068       C  0.77797709  0.90870251  0.89911070    -0.28800
C3069       C  0.90441283  0.96462497  0.85637935    -0.03100
C3070       C  0.93245718  0.96052606  0.85670388    -0.39600
H3071       H  0.86116077  0.98680177  0.86502591     0.13200
H3072       H  0.81429085  0.95802103  0.88021363     0.12800
H3073       H  0.83442092  0.87067281  0.88305114     0.12200
H3074       H  0.88038140  0.89898119  0.86751470     0.12500
H3075       H  0.78510694  0.86589947  0.89459916     0.15200
H3076       H  0.78594145  0.93638541  0.89767678     0.14000
H3077       H  0.90379776  0.98350818  0.84986716     0.11700
H3078       H  0.93488299  0.94488569  0.86413278     0.13700
C3079       C  0.56667753  0.89802767  0.89032904     0.19800
C3080       C  0.54745139  0.88333611  0.87945011    -0.18300
C3081       C  0.53672932  0.90272928  0.87205251    -0.10600
C3082       C  0.54503592  0.93734986  0.87544695     0.22000
C3083       C  0.56282568  0.95125268  0.88664395    -0.20000
C3084       C  0.57343548  0.93187994  0.89402226    -0.10800
C3085       C  0.53552888  0.95988153  0.86779542    -0.15000
C3086       C  0.52551584  0.95350033  0.85581691    -0.28800
C3087       C  0.57991369  0.87791642  0.89754074    -0.03100
C3088       C  0.60966518  0.89457978  0.90400131    -0.39600
H3089       H  0.54134638  0.85706282  0.87652470     0.13200
H3090       H  0.52194630  0.89030260  0.86376552     0.12800
H3091       H  0.56892457  0.97746587  0.88965026     0.12200
H3092       H  0.58687206  0.94354622  0.90262651     0.12500
H3093       H  0.53621478  0.48150913  0.87371015     0.15200
H3094       H  0.52412762  0.93086722  0.85112107     0.14000
H3095       H  0.56636906  0.84921602  0.89683640     0.11700
H3096       H  0.62448809  0.92332400  0.90395080     0.13700
C3097       C  0.57375427  0.62462036  0.86770743     0.19800
C3098       C  0.60887272  0.64688784  0.87057696    -0.18300
C3099       C  0.61905857  0.67603617  0.87843569    -0.10600
C3100       C  0.59418102  0.68363495  0.88357410     0.22000
C3101       C  0.55921664  0.66200041  0.88032725    -0.20000
C3102       C  0.54906597  0.63287088  0.87250847    -0.10800
C3103       C  0.60347142  0.71406913  0.89210857    -0.15000
C3104       C  0.63343586  0.73047980  0.89848739    -0.28800
C3105       C  0.56365557  0.59403003  0.85923499    -0.03100
C3106       C  0.53186546  0.56516891  0.85957357    -0.39600
H3107       H  0.62848674  0.64162516  0.86676543     0.13200
H3108       H  0.64645751  0.69268235  0.88024620     0.12800
H3109       H  0.53957292  0.66755342  0.88390944     0.12200
H3110       H  0.52190867  0.61726876  0.87008200     0.12500
H3111       H  0.58443200  0.72256014  0.89348023     0.15200
H3112       H  0.65236651  0.72176492  0.89758112     0.14000
H3113       H  0.58274650  0.59519032  0.85259826     0.11700
H3114       H  0.51404966  0.56205994  0.86706030     0.13700
C3115       C  0.78689661  0.86577281  0.76863398     0.19800
C3116       C  0.82078785  0.87415626  0.77165054    -0.18300
C3117       C  0.84689852  0.88803002  0.76254663    -0.10600
C3118       C  0.83934825  0.89364517  0.75025174     0.22000
C3119       C  0.80489071  0.88277146  0.74709445    -0.20000
C3120       C  0.77888360  0.86899046  0.75618341    -0.10800
C3121       C  0.86659852  0.91139531  0.74054934    -0.15000
C3122       C  0.89994182  0.93375652  0.74334390    -0.28800
C3123       C  0.76030265  0.85459357  0.77857145    -0.03100
C3124       C  0.73700550  0.86566586  0.77843596    -0.39600
H3125       H  0.82727728  0.87109808  0.78113763     0.13200
H3126       H  0.87284611  0.89446650  0.76523085     0.12800
H3127       H  0.79824156  0.88598667  0.73764910     0.12200
H3128       H  0.75257072  0.86128981  0.75348956     0.12500
H3129       H  0.85866488  0.90753110  0.73083537     0.15200
H3130       H  0.90824584  0.93885036  0.75298266     0.14000
H3131       H  0.76035711  0.83802554  0.78617129     0.11700
H3132       H  0.73717769  0.88232472  0.77083534     0.13700
C3133       C  0.59603084  0.91700783  0.74125963     0.19800
C3134       C  0.61404692  0.93511469  0.75204183    -0.18300
C3135       C  0.62547188  0.91897322  0.76066627    -0.10600
C3136       C  0.61916724  0.88429658  0.75868442     0.22000
C3137       C  0.60238268  0.86689454  0.74765787    -0.20000
C3138       C  0.59110301  0.88311917  0.73901756    -0.10800
C3139       C  0.63002574  0.86531101  0.76759663    -0.15000
C3140       C  0.64329570  0.87690521  0.77903399    -0.28800
C3141       C  0.58105970  0.93229821  0.73246569    -0.03100
C3142       C  0.56877463  0.95316512  0.73650662    -0.39600
H3143       H  0.61945466  0.96184633  0.75383408     0.13200
H3144       H  0.63923027  0.93397497  0.76877329     0.12800
H3145       H  0.59758337  0.84038675  0.74577167     0.12200
H3146       H  0.57759922  0.86874334  0.73073666     0.12500
H3147       H  0.62592696  0.83967985  0.76462499     0.15200
H3148       H  0.64578714  0.90120994  0.78268629     0.14000
H3149       H  0.57704780  0.92362034  0.72282232     0.11700
H3150       H  0.57028857  0.95946805  0.74635427     0.13700
C3151       C  0.56287012  0.66211078  0.75095715     0.19800
C3152       C  0.58597718  0.69732613  0.74760408    -0.18300
C3153       C  0.59837328  0.72387383  0.75657867    -0.10600
C3154       C  0.58775003  0.71564344  0.76910820     0.22000
C3155       C  0.56316413  0.68080619  0.77235925    -0.20000
C3156       C  0.55082599  0.65415674  0.76337384    -0.10800
C3157       C  0.60231994  0.74306639  0.77887602    -0.15000
C3158       C  0.63568147  0.76865319  0.77845412    -0.28800
C3159       C  0.55203473  0.63448303  0.74127585    -0.03100
C3160       C  0.54269643  0.60078805  0.74402233    -0.39600
H3161       H  0.59504681  0.70420194  0.73806327     0.13200
H3162       H  0.61628479  0.75082797  0.75368949     0.12800
H3163       H  0.55417518  0.67408276  0.78191411     0.12200
H3164       H  0.53187529  0.62749642  0.76619059     0.12500
H3165       H  0.58583598  0.74175578  0.78660457     0.15200
H3166       H  0.65207087  0.76981118  0.77072473     0.14000
H3167       H  0.55362231  0.64251579  0.73157403     0.11700
H3168       H  0.54252228  0.59272546  0.75362496     0.13700
C3169       C  0.59930518  0.89773057  0.81188160     0.19800
C3170       C  0.56701354  0.89393152  0.80852639    -0.18300
C3171       C  0.55425238  0.91404298  0.81428691    -0.10600
C3172       C  0.57373711  0.93884949  0.82353361     0.22000
C3173       C  0.60594870  0.94253634  0.82692773    -0.20000
C3174       C  0.61872054  0.92244870  0.82116414    -0.10800
C3175       C  0.56089022  0.95989919  0.83041170    -0.15000
C3176       C  0.53238144  0.96194697  0.82742475    -0.28800
C3177       C  0.61217313  0.87669052  0.80499679    -0.03100
C3178       C  0.64094764  0.87504529  0.80789222    -0.39600
H3179       H  0.55147433  0.87521905  0.80138896     0.13200
H3180       H  0.52897747  0.90956175  0.81154224     0.12800
H3181       H  0.62144894  0.96119331  0.83408506     0.12200
H3182       H  0.64395668  0.92690969  0.82394440     0.12500
H3183       H  0.57548567  0.97405907  0.83859916     0.15200
H3184       H  0.51904321  0.95127431  0.81870759     0.14000
H3185       H  0.59706096  0.86180116  0.79700467     0.11700
H3186       H  0.65477900  0.88644998  0.81646624     0.13700
C3187       C  0.80410071  0.90387844  0.81121208     0.19800
C3188       C  0.83398669  0.93468353  0.80706638    -0.18300
C3189       C  0.86634268  0.94603518  0.81263961    -0.10600
C3190       C  0.86976410  0.92668815  0.82256399     0.22000
C3191       C  0.83995978  0.89560433  0.82659292    -0.20000
C3192       C  0.80759660  0.88424174  0.82101019    -0.10800
C3193       C  0.90314466  0.93820041  0.82933875    -0.15000
C3194       C  0.93289052  0.96913390  0.82744954    -0.28800
C3195       C  0.77056787  0.89276978  0.80462070    -0.03100
C3196       C  0.73945057  0.86476373  0.80777820    -0.39600
H3197       H  0.83233706  0.95016504  0.79943177     0.13200
H3198       H  0.88829156  0.96997250  0.80908430     0.12800
H3199       H  0.84163359  0.88005690  0.83419952     0.12200
H3200       H  0.78569130  0.85999583  0.82440809     0.12500
H3201       H  0.90273803  0.92073384  0.83668167     0.15200
H3202       H  0.93541170  0.98624995  0.81969442     0.14000
H3203       H  0.77179421  0.90849628  0.79655193     0.11700
H3204       H  0.73637081  0.85042190  0.81639482     0.13700
C3205       C  0.60738749  0.70057807  0.81263415     0.19800
C3206       C  0.60052364  0.66824338  0.80731222    -0.18300
C3207       C  0.57985186  0.63595110  0.81353362    -0.10600
C3208       C  0.56554745  0.63510769  0.82536414     0.22000
C3209       C  0.57263225  0.66744286  0.83072772    -0.20000
C3210       C  0.59332226  0.69973586  0.82451171    -0.10800
C3211       C  0.54301546  0.60147848  0.83242543    -0.15000
C3212       C  0.54150155  0.57023735  0.83015728    -0.28800
C3213       C  0.62885177  0.73408427  0.80535754    -0.03100
C3214       C  0.63152662  0.76571144  0.80798887    -0.39600
H3215       H  0.61078465  0.66787884  0.79816850     0.13200
H3216       H  0.57473470  0.61187587  0.80887013     0.12800
H3217       H  0.56224880  0.66776575  0.83985243     0.12200
H3218       H  0.59824939  0.72375520  0.82916173     0.12500
H3219       H  0.52783911  0.60290520  0.84012573     0.15200
H3220       H  0.55527150  0.56766564  0.82224394     0.14000
H3221       H  0.64223952  0.73221698  0.79716173     0.11700
H3222       H  0.61986879  0.76896993  0.81638945     0.13700
C3223       C  0.91085870  0.83149505  0.22664861     0.19800
C3224       C  0.92923624  0.82033159  0.21898709    -0.18300
C3225       C  0.91170762  0.79084867  0.21131475    -0.10600
C3226       C  0.87520656  0.77163057  0.21116358     0.22000
C3227       C  0.85670774  0.78214115  0.21904428    -0.20000
C3228       C  0.87429047  0.81190763  0.22667975    -0.10800
C3229       C  0.85610153  0.73952099  0.20336548    -0.15000
C3230       C  0.86854512  0.73588855  0.19235465    -0.28800
C3231       C  0.93113040  0.86306868  0.23461471    -0.03100
C3232       C  0.91844219  0.88262476  0.23969838    -0.39600
H3233       H  0.95737824  0.83454485  0.21891700     0.13200
H3234       H  0.92686044  0.78273891  0.20572323     0.12800
H3235       H  0.82858219  0.76732862  0.21926249     0.12200
H3236       H  0.85913466  0.81894502  0.23271351     0.12500
H3237       H  0.83090828  0.71882684  0.20665341     0.15200
H3238       H  0.89208498  0.75807033  0.18872750     0.14000
H3239       H  0.95845893  0.87152931  0.23588139     0.11700
H3240       H  0.89164709  0.87575387  0.23822675     0.13700
C3241       C  0.88120390  0.61363377  0.21425097     0.19800
C3242       C  0.91046832  0.63170701  0.22184936    -0.18300
C3243       C  0.92175217  0.61300735  0.22931004    -0.10600
C3244       C  0.90371559  0.57569154  0.22938828     0.22000
C3245       C  0.87348920  0.55765492  0.22223112    -0.20000
C3246       C  0.86239166  0.57637595  0.21467371    -0.10800
C3247       C  0.91569634  0.55494595  0.23685454    -0.15000
C3248       C  0.94941586  0.56725246  0.23940417    -0.28800
C3249       C  0.87084694  0.63435967  0.20607404    -0.03100
C3250       C  0.85591696  0.62250318  0.19492848    -0.39600
H3251       H  0.92500055  0.66040282  0.22184847     0.13200
H3252       H  0.94440214  0.62788406  0.23506914     0.12800
H3253       H  0.85878555  0.52896815  0.22230831     0.12200
H3254       H  0.83900822  0.56165709  0.20924469     0.12500
H3255       H  0.89658929  0.52821241  0.23971528     0.15200
H3256       H  0.96885812  0.59305151  0.23588728     0.14000
H3257       H  0.87817816  0.66117658  0.20884693     0.11700
H3258       H  0.85126954  0.59697736  0.19161300     0.13700
C3259       C  0.70451941  0.59575501  0.20150575     0.19800
C3260       C  0.67953535  0.55981681  0.20282852    -0.18300
C3261       C  0.65057964  0.54925664  0.21059052    -0.10600
C3262       C  0.64603297  0.57461529  0.21719658     0.22000
C3263       C  0.67038087  0.61058478  0.21550898    -0.20000
C3264       C  0.69921812  0.62111561  0.20774911    -0.10800
C3265       C  0.61622643  0.56498493  0.22577902    -0.15000
C3266       C  0.59741453  0.53279395  0.23106265    -0.28800
C3267       C  0.73507047  0.60600915  0.19323775    -0.03100
C3268       C  0.76443499  0.63744977  0.19406630    -0.39600
H3269       H  0.68253233  0.53980987  0.19789142     0.13200
H3270       H  0.63178285  0.52132911  0.21122849     0.12800
H3271       H  0.66719139  0.63070448  0.22028011     0.12200
H3272       H  0.71689752  0.64918439  0.20656605     0.12500
H3273       H  0.61068263  0.58583672  0.22833766     0.15200
H3274       H  0.60334997  0.51193168  0.22910409     0.14000
H3275       H  0.73361876  0.58695414  0.18640148     0.11700
H3276       H  0.76790272  0.65502255  0.20174460     0.13700
C3277       C  0.58693161  0.89843267  0.33221096     0.19800
C3278       C  0.59235592  0.89455805  0.31954260    -0.18300
C3279       C  0.58282917  0.91065845  0.31029511    -0.10600
C3280       C  0.56719990  0.93078142  0.31352989     0.22000
C3281       C  0.56186327  0.93480294  0.32620834    -0.20000
C3282       C  0.57149029  0.91872598  0.33548221    -0.10800
C3283       C  0.55622401  0.94822871  0.30410076    -0.15000
C3284       C  0.55261712  0.94077847  0.29180230    -0.28800
C3285       C  0.59812614  0.88082881  0.34148254    -0.03100
C3286       C  0.60132909  0.88703196  0.35386398    -0.39600
H3287       H  0.60441214  0.87923639  0.31676158     0.13200
H3288       H  0.58823294  0.90750095  0.30070441     0.12800
H3289       H  0.54988906  0.95022429  0.32895693     0.12200
H3290       H  0.56643932  0.92206341  0.34509992     0.12500
H3291       H  0.54928481  0.96729221  0.30763662     0.15200
H3292       H  0.55808986  0.92110025  0.28792329     0.14000
H3293       H  0.60588798  0.86266722  0.33767274     0.11700
H3294       H  0.59438816  0.90523286  0.35811799     0.13700
C3295       C  0.58678988  0.64613942  0.30934398     0.19800
C3296       C  0.58892755  0.63818129  0.32189613    -0.18300
C3297       C  0.59792502  0.66376153  0.33108775    -0.10600
C3298       C  0.60474531  0.69799572  0.32791450     0.22000
C3299       C  0.60362045  0.70633714  0.31532097    -0.20000
C3300       C  0.59456255  0.68066497  0.30609607    -0.10800
C3301       C  0.61408117  0.72602151  0.33734556    -0.15000
C3302       C  0.60821335  0.71989742  0.34968461    -0.28800
C3303       C  0.57394573  0.61669672  0.30031434    -0.03100
C3304       C  0.57197787  0.61955220  0.28785576    -0.39600
H3305       H  0.58322923  0.61182407  0.32465237     0.13200
H3306       H  0.59970769  0.65648382  0.34058929     0.12800
H3307       H  0.60917349  0.73268825  0.31262972     0.12200
H3308       H  0.59297124  0.68791744  0.29657529     0.12500
H3309       H  0.62624894  0.75313159  0.33389078     0.15200
H3310       H  0.59542940  0.69321878  0.35347524     0.14000
H3311       H  0.56413374  0.59045745  0.30436736     0.11700
H3312       H  0.58235567  0.64508190  0.28326182     0.13700
C3313       C  0.85359773  0.93137355  0.31213388     0.19800
C3314       C  0.82335635  0.93376523  0.31311064    -0.18300
C3315       C  0.80302531  0.92239607  0.32394684    -0.10600
C3316       C  0.81206384  0.90749451  0.33397448     0.22000
C3317       C  0.84243672  0.90528778  0.33302030    -0.20000
C3318       C  0.86288348  0.91684192  0.32219667    -0.10800
C3319       C  0.79003761  0.89375505  0.34540833    -0.15000
C3320       C  0.75555851  0.88045423  0.34489068    -0.28800
C3321       C  0.87486760  0.94397124  0.30052598    -0.03100
C3322       C  0.90947076  0.95801777  0.30076165    -0.39600
H3323       H  0.81574089  0.94499747  0.30554261     0.13200
H3324       H  0.78046900  0.92573903  0.32446192     0.12800
H3325       H  0.84997436  0.89391568  0.34056425     0.12200
H3326       H  0.88556713  0.91370881  0.32165546     0.12500
H3327       H  0.80196936  0.89303009  0.35415721     0.15200
H3328       H  0.74360593  0.87915137  0.33594045     0.14000
H3329       H  0.86209446  0.94294497  0.29178018     0.11700
H3330       H  0.92229349  0.96104140  0.30965402     0.13700
C3331       C  0.78109567  0.56198711  0.43201104     0.19800
C3332       C  0.79745369  0.55242293  0.42282182    -0.18300
C3333       C  0.77404355  0.01827199  0.41562174    -0.10600
C3334       C  0.73853457  0.99540366  0.41818071     0.22000
C3335       C  0.72593765  0.51008415  0.42659865    -0.20000
C3336       C  0.74493905  0.54069255  0.43368816    -0.10800
C3337       C  0.71722497  0.96194947  0.41115889    -0.15000
C3338       C  0.73078357  0.94398131  0.40546860    -0.28800
C3339       C  0.80233543  0.59454029  0.43949290    -0.03100
C3340       C  0.79297929  0.59912735  0.45097407    -0.39600
H3341       H  0.82512750  0.56864535  0.42116948     0.13200
H3342       H  0.78716621  0.01254100  0.40825175     0.12800
H3343       H  0.69818038  0.49417353  0.42813373     0.12200
H3344       H  0.73102174  0.54775803  0.44031700     0.12500
H3345       H  0.68926417  0.95117980  0.41101660     0.15200
H3346       H  0.75843159  0.95343134  0.40605104     0.14000
H3347       H  0.82739350  0.61428394  0.43575725     0.11700
H3348       H  0.76923520  0.57835573  0.45513691     0.13700
C3349       C  0.49812401  0.76449107  0.41870968     0.19800
C3350       C  0.48989132  0.77969102  0.42870453    -0.18300
C3351       C  0.96116103  0.76229646  0.43539048    -0.10600
C3352       C  0.93888302  0.72629624  0.43255379     0.22000
C3353       C  0.94699113  0.71150306  0.42241322    -0.20000
C3354       C  0.97752930  0.73154722  0.41562094    -0.10800
C3355       C  0.90689544  0.70337634  0.43982801    -0.15000
C3356       C  0.90283648  0.70966273  0.45177130    -0.28800
C3357       C  0.53171919  0.78536291  0.41202840    -0.03100
C3358       C  0.54833963  0.76959049  0.40705206    -0.39600
H3359       H  0.50752278  0.80683691  0.43136560     0.13200
H3360       H  0.95505557  0.77513070  0.44279944     0.12800
H3361       H  0.92990835  0.68412980  0.41985845     0.12200
H3362       H  0.47891774  0.71746050  0.40721425     0.12500
H3363       H  0.88711371  0.67933330  0.43544511     0.15200
H3364       H  0.92360315  0.73228573  0.45643861     0.14000
H3365       H  0.54342094  0.81400419  0.41155747     0.11700
H3366       H  0.53746675  0.74118810  0.40817651     0.13700
C3367       C  0.74900062  0.76422229  0.42342264     0.19800
C3368       C  0.78407392  0.77611712  0.42592065    -0.18300
C3369       C  0.79353684  0.75845757  0.43464227    -0.10600
C3370       C  0.76796399  0.72835495  0.44107055     0.22000
C3371       C  0.73292872  0.71758775  0.43903252    -0.20000
C3372       C  0.72347369  0.73525127  0.43032620    -0.10800
C3373       C  0.77687930  0.70801834  0.45008141    -0.15000
C3374       C  0.80737860  0.70854588  0.44972330    -0.28800
C3375       C  0.73982300  0.78300294  0.41382460    -0.03100
C3376       C  0.70956312  0.76687453  0.40765770    -0.39600
H3377       H  0.80423702  0.79890117  0.42099537     0.13200
H3378       H  0.82088671  0.76872692  0.43636297     0.12800
H3379       H  0.71274998  0.69513781  0.44409127     0.12200
H3380       H  0.69614280  0.72628187  0.42915992     0.12500
H3381       H  0.75742221  0.69118023  0.45690135     0.15200
H3382       H  0.82531857  0.72191127  0.44208296     0.14000
H3383       H  0.75850892  0.81048817  0.41168620     0.11700
H3384       H  0.69135342  0.73907356  0.40942715     0.13700
loop_ 
_geom_bond_atom_site_label_1 
_geom_bond_atom_site_label_2 
_geom_bond_distance 
_geom_bond_site_symmetry_2 
_ccdc_geom_bond_type 
O1           C17   1.267       .  A
O1           Zn7   1.968       .  S
C2           O18   1.270       .  A
C2           O15   1.271       .  A
C2          C764   1.474       .  S
O3           C16   1.275       .  A
O3          Cd10   2.088       .  S
O4           C22   1.272       .  A
O4          Cd13   2.049       .  S
O5           C19   1.279       .  A
O5           Cd9   2.097       .  S
O6           C17   1.279       .  A
O6           Cd9   2.115       .  S
Zn7          O18   1.991       .  S
Zn7          O20   1.968       .  S
Zn7          O12   1.914       .  S
O8           C19   1.271       .  A
O8          Cd13   2.042       .  S
Cd9          O11   2.072       .  S
Cd9          O12   2.014       .  S
Cd10         O14   2.088       .  S
Cd10         O23   2.101       .  S
Cd10         O12   2.019       .  S
O11          C21   1.276       .  A
O12         Cd13   1.985       .  S
Cd13         O15   2.071       .  S
O14          C21   1.279       .  A
C16          O20   1.270       .  A
C16         C748   1.474       .  S
C17         C782   1.473       .  S
C19         C838   1.471       .  S
C21         C800   1.478       .  S
C22          O23   1.279       .  A
C22         C820   1.474       .  S
O24          C40   1.270       .  A
O24       Zn2568   1.972       .  S
C25          O41   1.266       .  A
C25          O38   1.279       .  A
C25         C784   1.474       .  S
O26          C39   1.274       .  A
O26         Cd33   2.087       .  S
O27          C45   1.277       .  A
O27         Cd36   2.089       .  S
O28          C42   1.275       .  A
O28       Cd1724   2.063       .  S
O29          C40   1.275       .  A
O29         Cd32   2.093       .  S
Zn30         O41   1.970       .  S
Zn30       O2562   1.965       .  S
Zn30       O1735   1.975       .  S
Zn30         O35   1.912       .  S
O31          C42   1.279       .  A
O31        Cd882   2.092   1_545  S
Cd32         O34   2.090       .  S
Cd32       O1720   2.068   1_455  S
Cd32       O2573   2.009   1_445  S
Cd33        O883   2.067       .  S
Cd33       O1738   2.062   1_455  S
Cd33       O1727   2.000   1_455  S
O34          C44   1.279       .  A
O35         Cd36   2.016       .  S
O35       Cd2570   2.006       .  S
O35       Cd1725   1.998       .  S
Cd36         O38   2.110       .  S
Cd36        O877   2.095       .  S
O37          C44   1.274   1_565  A
O37        Cd879   2.068       .  S
C39          O43   1.268       .  A
C39         C746   1.475       .  S
C40         C766   1.478       .  S
C42         C710   1.476       .  S
O43       Zn1722   1.964       .  S
C44         C728   1.480       .  S
C45          O46   1.276       .  A
C45         C694   1.480       .  S
O46       Cd1725   2.062       .  S
C47          H48   1.111       .  S
C47          C53   1.547       .  S
C47          C52   1.550       .  S
C47          C51   1.549       .  S
C49          H50   1.111       .  S
C49          C55   1.520       .  S
C49          C54   1.531       .  S
C49          C56   1.525       .  S
C51          C54   1.378       .  D
C51         C640   1.494       .  S
C52          C55   1.375       .  D
C52         C658   1.495       .  S
C53          C56   1.378       .  D
C53         C676   1.492       .  S
C54         C602   1.487       .  S
C55         C586   1.474       .  S
C56         C620   1.477       .  S
C57          H58   1.112   1_565  S
C57        C2601   1.544       .  S
C57         C908   1.548       .  S
C57        C1753   1.544   1_565  S
C59          H60   1.110       .  S
C59         C911   1.526       .  S
C59        C1756   1.535   1_565  S
C59        C2604   1.536       .  S
C61        C1749   1.542       .  S
C61          C64   1.380       .  D
C61         C674   1.491       .  S
C62         C903   1.550       .  S
C62          C65   1.378       .  D
C62         C656   1.493       .  S
C63        C2595   1.543       .  S
C63          C66   1.377       .  D
C63         C638   1.494       .  S
C64        C1751   1.535   1_445  S
C64         C568   1.487       .  S
C65         C905   1.526       .  S
C65         C532   1.482       .  S
C66        C2597   1.537   1_455  S
C66         C548   1.488       .  S
C67          H68   1.111       .  S
C67          C73   1.548       .  S
C67          C72   1.544       .  S
C67          C71   1.542       .  S
C69          H70   1.111       .  S
C69          C75   1.526       .  S
C69          C74   1.529       .  S
C69          C76   1.525       .  S
C71          C74   1.378       .  D
C71         C512   1.491       .  S
C72          C75   1.378       .  D
C72         C476   1.489       .  S
C73          C76   1.375       .  D
C73         C494   1.492       .  S
C74         C460   1.476       .  S
C75         C422   1.476       .  S
C76         C440   1.483       .  S
C77          H78   1.112       .  S
C77          C83   1.536       .  S
C77          C82   1.544       .  S
C77          C81   1.541       .  S
C79          H80   1.110       .  S
C79          C85   1.534       .  S
C79          C84   1.534       .  S
C79          C86   1.542       .  S
C81          C84   1.380       .  D
C81         C514   1.489       .  S
C82          C85   1.376       .  D
C82         C496   1.494       .  S
C83          C86   1.376       .  D
C83         C478   1.492       .  S
C84         C836   1.481       .  S
C85         C818   1.487       .  S
C86         C802   1.488       .  S
O87         C103   1.273       .  A
O87         Zn93   1.998       .  S
C88         O104   1.271       .  A
C88         O101   1.274       .  A
C88         C424   1.473       .  S
O89         C102   1.277       .  A
O89         Cd96   2.085       .  S
O90         C108   1.273       .  A
O90         Cd99   2.057       .  S
O91         C105   1.276       .  A
O91         Cd95   2.074       .  S
O92         C103   1.275       .  A
O92         Cd95   2.082       .  S
Zn93        O104   2.007       .  S
Zn93        O106   1.996       .  S
Zn93         O98   1.931       .  S
O94         C105   1.273       .  A
O94         Cd99   2.068       .  S
Cd95         O97   2.055       .  S
Cd95         O98   1.999       .  S
Cd96        O100   2.077       .  S
Cd96        O109   2.086       .  S
Cd96         O98   2.009       .  S
O97         C107   1.274       .  A
O98         Cd99   1.995       .  S
Cd99        O101   2.066       .  S
O100        C107   1.274       .  A
C102        O106   1.271       .  A
C102        C458   1.473       .  S
C103        C442   1.478       .  S
C105        C368   1.476       .  S
C107        C386   1.472       .  S
C108        O109   1.278       .  A
C108        C406   1.474       .  S
O110        C126   1.269       .  A
O110       Zn116   1.996   1_545  S
C111        O127   1.269       .  A
C111        O124   1.277       .  A
C111        C584   1.474       .  S
O112        C125   1.279       .  A
O112       Cd119   2.103       .  S
O113        C131   1.273       .  A
O113       Cd122   2.061       .  S
O114        C128   1.272       .  A
O114      Cd1810   2.055       .  S
O115        C126   1.275       .  A
O115       Cd118   2.077       .  S
Zn116      O2665   1.988   1_455  S
Zn116       O975   1.982       .  S
Zn116       O121   1.924   1_565  S
O117        C128   1.278       .  A
O117       Cd968   2.089   1_545  S
Cd118       O120   2.065       .  S
Cd118      O1806   2.056   1_455  S
Cd118       O121   1.996       .  S
Cd119       O969   2.081       .  S
Cd119      O1824   2.084   1_455  S
Cd119       O967   2.009       .  S
O120        C130   1.274       .  A
O121       Cd965   2.014   1_545  S
O121      Cd2660   2.008   1_445  S
Cd122       O124   2.089       .  S
Cd122       O963   2.095       .  S
Cd122      O2659   2.009       .  S
O123        C130   1.277       .  A
O123       Cd965   2.079   1_545  S
C125        O129   1.268       .  A
C125        C604   1.471       .  S
C126        C622   1.472       .  S
O127      Zn2654   1.990       .  S
C128        C370   1.474       .  S
O129       Zn962   1.972       .  S
C130        C404   1.475       .  S
C131        O132   1.276       .  A
C131        C388   1.465       .  S
O132      Cd1811   2.073       .  S
C133        H134   1.112       .  S
C133        C139   1.543       .  S
C133        C138   1.545       .  S
C133        C137   1.539       .  S
C135        H136   1.108       .  S
C135        C141   1.538       .  S
C135        C140   1.540       .  S
C135        C142   1.533       .  S
C137        C140   1.376       .  D
C137        C314   1.494       .  S
C138        C141   1.379       .  D
C138        C334   1.493       .  S
C139        C142   1.380       .  D
C139        C352   1.492       .  S
C140        C712   1.487       .  S
C141        C692   1.494       .  S
C142        C730   1.484       .  S
C143        H144   1.110       .  S
C143        C148   1.534       .  S
C143       C2687   1.535       .  S
C143        C993   1.540       .  S
C145        H146   1.111       .  S
C145        C151   1.546       .  S
C145        C996   1.539       .  S
C145       C2690   1.544       .  S
C147        C989   1.537       .  S
C147        C150   1.374       .  D
C147        C278   1.481       .  S
C148        C151   1.376       .  D
C148        C262   1.487       .  S
C149       C2681   1.535       .  S
C149        C152   1.381       .  D
C149        C296   1.489       .  S
C150        C991   1.538       .  S
C150        C316   1.494       .  S
C151        C332   1.493       .  S
C152       C2683   1.544       .  S
C152        C350   1.489       .  S
O153        C169   1.275       .  A
O153       Zn159   2.037       .  S
C154        O170   1.275       .  A
C154        O167   1.277       .  A
C154        C244   1.483       .  S
O155        C168   1.275       .  A
O155       Cd162   2.078       .  S
O156        C174   1.280       .  A
O156       Cd165   2.104       .  S
O157        C171   1.271       .  A
O157       Cd161   2.046       .  S
O158        C169   1.272       .  A
O158       Cd161   2.060       .  S
Zn159       O170   2.012       .  S
Zn159       O172   2.012       .  S
Zn159       O164   1.948       .  S
O160        C171   1.278       .  A
O160       Cd165   2.095       .  S
Cd161       O163   2.063       .  S
Cd161       O164   1.991       .  S
Cd162       O166   2.081       .  S
Cd162       O175   2.066       .  S
Cd162       O164   2.002       .  S
O163        C173   1.272       .  A
O164       Cd165   2.018       .  S
Cd165       O167   2.092       .  S
O166        C173   1.276       .  A
C168        O172   1.275       .  A
C168        C208   1.478       .  S
C169        C224   1.477       .  S
C171        C550   1.472       .  S
C173        C530   1.477       .  S
C174        O175   1.274       .  A
C174        C566   1.483       .  S
O176        C192   1.274       .  A
O176       Zn182   2.023       .  S
C177        O193   1.274       .  A
C177        O190   1.274       .  A
C177        C226   1.476       .  S
O178        C191   1.275       .  A
O178       Cd185   2.078       .  S
O179        C197   1.276       .  A
O179       Cd188   2.080       .  S
O180        C194   1.276       .  A
O180       Cd184   2.072       .  S
O181        C192   1.274       .  A
O181       Cd184   2.077       .  S
Zn182       O193   2.009       .  S
Zn182       O195   2.011       .  S
Zn182       O187   1.945       .  S
O183        C194   1.273       .  A
O183       Cd188   2.068       .  S
Cd184       O186   2.072       .  S
Cd184       O187   2.004       .  S
Cd185       O189   2.069       .  S
Cd185       O198   2.083       .  S
Cd185       O187   2.001       .  S
O186        C196   1.274       .  A
O187       Cd188   2.006       .  S
Cd188       O190   2.070       .  S
O189        C196   1.276       .  A
C191        O195   1.274       .  A
C191        C206   1.478       .  S
C192        C242   1.480       .  S
C194        C280   1.476       .  S
C196        C260   1.477       .  S
C197        O198   1.275       .  A
C197        C298   1.484       .  S
C199        C207   1.487       .  S
C199        C200   1.403       .  A
C199        C204   1.407       .  A
C200        C201   1.397       .  A
C200        H209   1.084       .  S
C201        C202   1.408       .  A
C201        H210   1.079   1_556  S
C202        C205   1.491   1_556  S
C202        C203   1.406       .  A
C203        C204   1.399       .  A
C203        H211   1.083       .  S
C204        H212   1.081       .  S
C205        C206   1.349       .  D
C205        H213   1.087       .  S
C206        H214   1.082       .  S
C207        C208   1.348       .  D
C207        H215   1.087       .  S
C208        H216   1.084       .  S
C217        C225   1.486   1_556  S
C217        C218   1.403       .  A
C217        C222   1.409   1_546  A
C218       C1065   1.395       .  A
C218        H227   1.084       .  S
C219        C220   1.407       .  A
C219       C1064   1.395       .  A
C219        H228   1.081       .  S
C220        C223   1.491       .  S
C220        C221   1.405       .  A
C221       C1068   1.402   1_556  A
C221        H229   1.083       .  S
C222       C1067   1.399   1_554  A
C222        H230   1.080       .  S
C223        C224   1.347       .  D
C223        H231   1.087       .  S
C224        H232   1.084       .  S
C225        C226   1.346       .  D
C225        H233   1.087       .  S
C226        H234   1.083       .  S
C235        C243   1.491       .  S
C235        C240   1.407   1_455  A
C235       C1928   1.404       .  A
C236        C237   1.397       .  A
C236       C1927   1.404       .  A
C236        H245   1.084       .  S
C237        C238   1.408       .  A
C237        H246   1.080   1_556  S
C238        C241   1.493   1_556  S
C238        C239   1.406       .  A
C239       C1932   1.401       .  A
C239        H247   1.083       .  S
C240       C1931   1.401       .  A
C240        H248   1.080       .  S
C241        C242   1.350       .  D
C241        H249   1.087   1_554  S
C242        H250   1.083       .  S
C243        C244   1.350       .  D
C243        H251   1.087       .  S
C244        H252   1.084       .  S
C253        C261   1.484       .  S
C253        C254   1.403       .  A
C253        C258   1.407       .  A
C254        C255   1.400       .  A
C254        H263   1.083       .  S
C255        C256   1.408       .  A
C255        H264   1.082       .  S
C256        C259   1.483       .  S
C256        C257   1.402       .  A
C257        C258   1.395       .  A
C257        H265   1.084       .  S
C258        H266   1.082       .  S
C259        C260   1.345       .  D
C259        H267   1.087       .  S
C260        H268   1.085       .  S
C261        C262   1.343       .  D
C261        H269   1.086       .  S
C262        H270   1.079       .  S
C271        C279   1.484       .  S
C271        C272   1.402       .  A
C271        C276   1.408       .  A
C272        C273   1.396       .  A
C272        H281   1.083       .  S
C273        C274   1.407       .  A
C273        H282   1.082       .  S
C274        C277   1.483       .  S
C274        C275   1.403       .  A
C275        C276   1.399       .  A
C275        H283   1.083       .  S
C276        H284   1.081       .  S
C277        C278   1.342       .  D
C277        H285   1.087       .  S
C278        H286   1.085       .  S
C279        C280   1.345       .  D
C279        H287   1.087       .  S
C280        H288   1.085       .  S
C289        C297   1.494       .  S
C289        C290   1.404       .  A
C289        C294   1.410       .  A
C290        C291   1.399       .  A
C290        H299   1.083       .  S
C291        C292   1.409       .  A
C291        H300   1.081       .  S
C292        C295   1.493       .  S
C292        C293   1.404       .  A
C293        C294   1.403       .  A
C293        H301   1.083       .  S
C294        H302   1.081       .  S
C295        C296   1.347       .  D
C295        H303   1.086       .  S
C296        H304   1.084       .  S
C297        C298   1.349       .  D
C297        H305   1.087       .  S
C298        H306   1.084       .  S
C307        C315   1.494       .  S
C307        C308   1.407       .  A
C307        C312   1.408       .  A
C308        C309   1.401       .  A
C308        H317   1.083       .  S
C309        C310   1.407       .  A
C309        H318   1.080       .  S
C310        C313   1.494       .  S
C310        C311   1.406       .  A
C311        C312   1.401       .  A
C311        H319   1.083       .  S
C312        H320   1.080       .  S
C313        C314   1.351       .  D
C313        H321   1.086       .  S
C314        H322   1.083       .  S
C315        C316   1.352       .  D
C315        H323   1.087       .  S
C316        H324   1.083       .  S
C325        C333   1.496       .  S
C325        C326   1.407       .  A
C325        C330   1.408       .  A
C326        C327   1.404       .  A
C326        H335   1.083       .  S
C327        C328   1.409       .  A
C327        H336   1.081       .  S
C328        C331   1.496       .  S
C328        C329   1.405       .  A
C329        C330   1.401       .  A
C329        H337   1.083       .  S
C330        H338   1.080       .  S
C331        C332   1.349       .  D
C331        H339   1.087       .  S
C332        H340   1.083       .  S
C333        C334   1.350       .  D
C333        H341   1.087       .  S
C334        H342   1.083       .  S
C343        C351   1.491       .  S
C343        C344   1.404       .  A
C343        C348   1.408       .  A
C344        C345   1.400       .  A
C344        H353   1.084       .  S
C345        C346   1.408       .  A
C345        H354   1.081       .  S
C346        C349   1.492       .  S
C346        C347   1.405       .  A
C347        C348   1.402       .  A
C347        H355   1.084       .  S
C348        H356   1.081       .  S
C349        C350   1.347       .  D
C349        H357   1.086       .  S
C350        H358   1.083       .  S
C351        C352   1.347       .  D
C351        H359   1.086       .  S
C352        H360   1.084       .  S
C361        C369   1.488       .  S
C361        C362   1.403       .  A
C361        C366   1.408       .  A
C362        C363   1.399       .  A
C362        H371   1.083       .  S
C363        C364   1.409       .  A
C363        H372   1.080       .  S
C364        C367   1.488       .  S
C364        C365   1.403       .  A
C365        C366   1.397       .  A
C365        H373   1.084       .  S
C366        H374   1.082       .  S
C367        C368   1.346       .  D
C367        H375   1.087       .  S
C368        H376   1.084       .  S
C369        C370   1.344       .  D
C369        H377   1.087       .  S
C370        H378   1.085       .  S
C379        C387   1.474       .  S
C379        C380   1.402       .  A
C379        C384   1.403       .  A
C380        C381   1.398       .  A
C380        H389   1.083       .  S
C381        C382   1.405       .  A
C381        H390   1.083       .  S
C382        C385   1.474       .  S
C382        C383   1.401       .  A
C383        C384   1.395       .  A
C383        H391   1.083       .  S
C384        H392   1.083       .  S
C385        C386   1.343       .  D
C385        H393   1.087       .  S
C386        H394   1.086       .  S
C387        C388   1.340       .  D
C387        H395   1.087       .  S
C388        H396   1.087       .  S
C397        C405   1.487       .  S
C397        C398   1.403       .  A
C397        C402   1.408       .  A
C398        C399   1.397       .  A
C398        H407   1.083       .  S
C399        C400   1.407       .  A
C399        H408   1.081       .  S
C400        C403   1.486       .  S
C400        C401   1.404       .  A
C401        C402   1.399       .  A
C401        H409   1.083       .  S
C402        H410   1.081       .  S
C403        C404   1.346       .  D
C403        H411   1.087       .  S
C404        H412   1.085       .  S
C405        C406   1.345       .  D
C405        H413   1.087       .  S
C406        H414   1.085       .  S
C415        C423   1.484       .  S
C415        C420   1.410       .  A
C415       C1262   1.401   1_545  A
C416        C417   1.394       .  A
C416       C1261   1.402       .  A
C416        H425   1.084       .  S
C417        C418   1.406       .  A
C417        H426   1.082       .  S
C418        C421   1.480       .  S
C418        C419   1.401       .  A
C419       C1266   1.399       .  A
C419       H1273   1.084       .  S
C420       C1265   1.398   1_545  A
C420        H428   1.081       .  S
C421        C422   1.342       .  D
C421        H429   1.087       .  S
C422        H430   1.085       .  S
C423        C424   1.344       .  D
C423        H431   1.087       .  S
C424        H432   1.084       .  S
H427       C1265   1.084       .  S
C433        C441   1.485       .  S
C433       C2126   1.404       .  A
C433       C2130   1.407       .  A
C434        C435   1.395   1_655  A
C434       C2125   1.404       .  A
C434        H443   1.084       .  S
C435        C436   1.406       .  A
C435        H444   1.082       .  S
C436        C439   1.481       .  S
C436        C437   1.403       .  A
C437        C438   1.397       .  A
C437        H445   1.084       .  S
C438       C2125   1.407   1_455  A
C438       H2138   1.081       .  S
C439        C440   1.344       .  D
C439        H447   1.086       .  S
C440        H448   1.084       .  S
C441        C442   1.348       .  D
C441        H449   1.087       .  S
C442        H450   1.084       .  S
H446       C2130   1.081       .  S
C451        C459   1.481       .  S
C451        C452   1.400       .  A
C451        C456   1.407       .  A
C452        C453   1.399       .  A
C452        H461   1.084       .  S
C453        C454   1.411       .  A
C453        H462   1.081       .  S
C454        C457   1.487       .  S
C454        C455   1.401       .  A
C455        C456   1.395       .  A
C455        H463   1.083       .  S
C456        H464   1.082       .  S
C457        C458   1.343       .  D
C457        H465   1.087       .  S
C458        H466   1.084       .  S
C459        C460   1.342       .  D
C459        H467   1.087       .  S
C460        H468   1.085       .  S
C469        C477   1.493       .  S
C469        C470   1.405   1_545  A
C469        C474   1.408       .  A
C470       C1317   1.401       .  A
C470        H479   1.084   1_565  S
C471        C472   1.408       .  A
C471       C1316   1.399       .  A
C471        H480   1.081       .  S
C472        C475   1.490       .  S
C472        C473   1.404       .  A
C473       C1320   1.401       .  A
C473        H481   1.083       .  S
C474       C1319   1.401   1_545  A
C474        H482   1.080       .  S
C475        C476   1.348       .  D
C475        H483   1.086       .  S
C476        H484   1.084       .  S
C477        C478   1.350       .  D
C477        H485   1.086       .  S
C478        H486   1.083       .  S
C487        C495   1.494       .  S
C487        C492   1.407       .  A
C487       C2180   1.407       .  A
C488        C489   1.400   1_655  A
C488       C2179   1.407       .  A
C488        H497   1.084       .  S
C489        C490   1.406       .  A
C489        H498   1.080       .  S
C490        C493   1.493       .  S
C490        C491   1.407       .  A
C491       C2184   1.401   1_455  A
C491        H499   1.084       .  S
C492       C2183   1.400       .  A
C492        H500   1.080       .  S
C493        C494   1.352       .  D
C493        H501   1.087       .  S
C494        H502   1.082       .  S
C495        C496   1.352       .  D
C495        H503   1.087       .  S
C496        H504   1.083       .  S
C505        C513   1.493       .  S
C505        C506   1.404       .  A
C505        C510   1.408       .  A
C506        C507   1.401       .  A
C506        H515   1.084       .  S
C507        C508   1.410       .  A
C507        H516   1.080       .  S
C508        C511   1.495       .  S
C508        C509   1.405       .  A
C509        C510   1.400       .  A
C509        H517   1.084       .  S
C510        H518   1.080       .  S
C511        C512   1.348       .  D
C511        H519   1.086       .  S
C512        H520   1.082       .  S
C513        C514   1.347       .  D
C513        H521   1.086       .  S
C514        H522   1.083       .  S
C523        C531   1.486       .  S
C523        C524   1.402       .  A
C523        C528   1.407       .  A
C524        C525   1.401       .  A
C524        H533   1.083       .  S
C525        C526   1.411       .  A
C525        H534   1.080       .  S
C526        C529   1.490       .  S
C526        C527   1.403       .  A
C527        C528   1.396       .  A
C527        H535   1.083       .  S
C528        H536   1.082       .  S
C529        C530   1.346       .  D
C529        H537   1.087       .  S
C530        H538   1.084       .  S
C531        C532   1.343       .  D
C531        H539   1.087       .  S
C532        H540   1.085       .  S
C541        C549   1.486       .  S
C541        C542   1.402       .  A
C541        C546   1.408       .  A
C542        C543   1.400       .  A
C542        H551   1.083       .  S
C543        C544   1.410       .  A
C543        H552   1.081       .  S
C544        C547   1.486       .  S
C544        C545   1.402       .  A
C545        C546   1.395       .  A
C545        H553   1.084       .  S
C546        H554   1.082       .  S
C547        C548   1.345       .  D
C547       H1401   1.085       .  S
C548        H556   1.083       .  S
C549        C550   1.343       .  D
C549        H557   1.087       .  S
C550        H558   1.086       .  S
H555       C1393   1.086       .  S
C559        C567   1.491       .  S
C559        C560   1.403       .  A
C559        C564   1.408       .  A
C560        C561   1.403       .  A
C560        H569   1.083       .  S
C561        C562   1.411       .  A
C561        H570   1.081       .  S
C562        C565   1.495       .  S
C562        C563   1.403       .  A
C563        C564   1.398       .  A
C563        H571   1.083       .  S
C564        H572   1.082       .  S
C565        C566   1.346       .  D
C565        H573   1.087       .  S
C566        H574   1.084       .  S
C567        C568   1.346       .  D
C567        H575   1.086       .  S
C568        H576   1.085       .  S
C577        C585   1.482       .  S
C577        C578   1.400       .  A
C577        C582   1.407       .  A
C578        C579   1.400       .  A
C578        H587   1.084       .  S
C579        C580   1.412       .  A
C579        H588   1.081       .  S
C580        C583   1.487       .  S
C580        C581   1.401       .  A
C581        C582   1.394       .  A
C581        H589   1.083       .  S
C582        H590   1.082       .  S
C583        C584   1.342       .  D
C583        H591   1.087       .  S
C584        H592   1.084       .  S
C585        C586   1.341       .  D
C585        H593   1.087       .  S
C586        H594   1.085       .  S
C595        C603   1.488       .  S
C595        C596   1.410       .  A
C595        C600   1.400       .  A
C596        C597   1.397       .  A
C596        H605   1.081       .  S
C597        C598   1.407       .  A
C597        H606   1.079       .  S
C598        C601   1.488       .  S
C598        C599   1.406       .  A
C599        C600   1.398       .  A
C599        H607   1.083       .  S
C600        H608   1.083       .  S
C601        C602   1.348       .  D
C601        H609   1.086       .  S
C602        H610   1.082       .  S
C603        C604   1.342       .  D
C603        H611   1.087       .  S
C604        H612   1.085       .  S
C613        C621   1.483       .  S
C613        C614   1.400       .  A
C613        C618   1.410       .  A
C614        C615   1.396       .  A
C614        H623   1.083       .  S
C615        C616   1.408       .  A
C615        H624   1.082       .  S
C616        C619   1.482       .  S
C616        C617   1.400       .  A
C617        C618   1.399       .  A
C617        H625   1.084       .  S
C618        H626   1.082       .  S
C619        C620   1.341       .  D
C619        H627   1.086       .  S
C620        H628   1.085       .  S
C621        C622   1.342       .  D
C621        H629   1.087       .  S
C622        H630   1.086       .  S
C631        C639   1.494       .  S
C631        C632   1.406       .  A
C631        C636   1.408       .  A
C632        C633   1.401       .  A
C632        H641   1.083       .  S
C633        C634   1.408       .  A
C633        H642   1.081       .  S
C634        C637   1.494       .  S
C634        C635   1.406       .  A
C635        C636   1.401       .  A
C635        H643   1.083       .  S
C636        H644   1.081       .  S
C637        C638   1.350       .  D
C637        H645   1.087       .  S
C638        H646   1.083       .  S
C639        C640   1.351       .  D
C639        H647   1.086       .  S
C640        H648   1.083       .  S
C649        C657   1.496       .  S
C649        C650   1.406       .  A
C649        C654   1.408       .  A
C650        C651   1.401       .  A
C650        H659   1.083       .  S
C651        C652   1.408       .  A
C651        H660   1.079       .  S
C652        C655   1.497       .  S
C652        C653   1.407       .  A
C653        C654   1.402       .  A
C653        H661   1.083       .  S
C654        H662   1.080       .  S
C655        C656   1.351       .  D
C655        H663   1.086       .  S
C656        H664   1.082       .  S
C657        C658   1.351       .  D
C657        H665   1.085       .  S
C658        H666   1.082       .  S
C667        C675   1.494       .  S
C667        C668   1.406       .  A
C667        C672   1.409       .  A
C668        C669   1.401       .  A
C668        H677   1.084       .  S
C669        C670   1.408       .  A
C669        H678   1.081       .  S
C670        C673   1.493       .  S
C670        C671   1.405       .  A
C671        C672   1.401       .  A
C671        H679   1.084       .  S
C672        H680   1.080       .  S
C673        C674   1.348       .  D
C673        H681   1.086       .  S
C674        H682   1.083       .  S
C675        C676   1.350       .  D
C675        H683   1.085       .  S
C676        H684   1.083       .  S
C685        C693   1.485       .  S
C685        C686   1.403       .  A
C685        C690   1.407       .  A
C686        C687   1.396       .  A
C686        H695   1.084       .  S
C687        C688   1.408       .  A
C687        H696   1.082       .  S
C688        C691   1.489       .  S
C688        C689   1.404       .  A
C689        C690   1.401       .  A
C689        H697   1.083       .  S
C690        H698   1.082       .  S
C691        C692   1.346       .  D
C691        H699   1.085       .  S
C692        H700   1.078       .  S
C693        C694   1.347       .  D
C693        H701   1.087       .  S
C694        H702   1.085       .  S
C703        C711   1.485       .  S
C703        C704   1.402       .  A
C703        C708   1.409       .  A
C704        C705   1.397       .  A
C704        H713   1.083       .  S
C705        C706   1.408       .  A
C705        H714   1.082       .  S
C706        C709   1.486       .  S
C706        C707   1.403       .  A
C707        C708   1.400       .  A
C707        H715   1.083       .  S
C708        H716   1.082       .  S
C709        C710   1.345       .  D
C709        H717   1.087       .  S
C710        H718   1.086       .  S
C711        C712   1.343       .  D
C711        H719   1.086       .  S
C712        H720   1.085       .  S
C721        C729   1.489       .  S
C721        C722   1.402       .  A
C721        C726   1.408       .  A
C722        C723   1.401       .  A
C722        H731   1.083       .  S
C723        C724   1.411       .  A
C723        H732   1.080       .  S
C724        C727   1.493       .  S
C724        C725   1.403       .  A
C725        C726   1.398       .  A
C725        H733   1.083       .  S
C726        H734   1.081       .  S
C727        C728   1.346       .  D
C727        H735   1.087       .  S
C728        H736   1.083       .  S
C729        C730   1.345       .  D
C729        H737   1.087       .  S
C730        H738   1.084       .  S
C739        C747   1.479       .  S
C739        C740   1.404       .  A
C739        C744   1.404       .  A
C740        C741   1.395       .  A
C740        H749   1.084       .  S
C741        C742   1.405       .  A
C741        H750   1.081       .  S
C742        C745   1.480       .  S
C742        C743   1.405       .  A
C743        C744   1.395       .  A
C743        H751   1.084       .  S
C744        H752   1.081       .  S
C745        C746   1.350       .  D
C745        H753   1.087       .  S
C746        H754   1.084       .  S
C747        C748   1.348       .  D
C747        H755   1.087       .  S
C748        H756   1.084       .  S
C757        C765   1.482       .  S
C757        C758   1.404       .  A
C757        C762   1.405       .  A
C758        C759   1.394       .  A
C758        H767   1.084       .  S
C759        C760   1.406       .  A
C759        H768   1.080       .  S
C760        C763   1.486       .  S
C760        C761   1.406       .  A
C761        C762   1.399       .  A
C761        H769   1.083       .  S
C762        H770   1.081       .  S
C763        C764   1.349       .  D
C763        H771   1.087       .  S
C764        H772   1.083       .  S
C765        C766   1.350       .  D
C765        H773   1.087       .  S
C766        H774   1.084       .  S
C775        C783   1.487       .  S
C775        C776   1.399       .  A
C775        C780   1.411       .  A
C776        C777   1.397       .  A
C776        H785   1.083       .  S
C777        C778   1.411       .  A
C777        H786   1.082       .  S
C778        C781   1.490       .  S
C778        C779   1.401       .  A
C779        C780   1.401       .  A
C779        H787   1.083       .  S
C780        H788   1.082       .  S
C781        C782   1.342       .  D
C781        H789   1.086       .  S
C782        H790   1.086       .  S
C783        C784   1.339       .  D
C783        H791   1.087       .  S
C784        H792   1.086       .  S
C793        C801   1.491       .  S
C793        C794   1.403       .  A
C793        C798   1.408       .  A
C794       C1641   1.401       .  A
C794        H803   1.083       .  S
C795        C796   1.409       .  A
C795       C1640   1.399       .  A
C795        H804   1.081       .  S
C796        C799   1.489       .  S
C796       C1643   1.403       .  A
C797        C798   1.401       .  A
C797       C1642   1.404   1_545  A
C797        H805   1.083   1_545  S
C798        H806   1.082       .  S
C799        C800   1.346       .  D
C799        H807   1.087       .  S
C800        H808   1.085       .  S
C801        C802   1.344       .  D
C801        H809   1.087       .  S
C802        H810   1.084       .  S
C811        C819   1.489   1_655  S
C811        C812   1.403       .  A
C811       C2508   1.408       .  A
C812       C2505   1.403       .  A
C812        H821   1.083   1_655  S
C813        C814   1.410       .  A
C813       C2504   1.401       .  A
C813        H822   1.082       .  S
C814        C817   1.484       .  S
C814        C815   1.400       .  A
C815        C816   1.394       .  A
C815        H823   1.084       .  S
C816       C2503   1.409       .  A
C816       H2516   1.082       .  S
C817        C818   1.341       .  D
C817        H825   1.086       .  S
C818        H826   1.084       .  S
C819        C820   1.344       .  D
C819        H827   1.086       .  S
C820        H828   1.086       .  S
H824       C2508   1.082       .  S
C829        C837   1.486       .  S
C829        C830   1.401       .  A
C829        C834   1.410       .  A
C830        C831   1.398       .  A
C830        H839   1.083       .  S
C831        C832   1.409       .  A
C831        H840   1.082       .  S
C832        C835   1.485       .  S
C832        C833   1.400       .  A
C833        C834   1.397       .  A
C833        H841   1.083       .  S
C834        H842   1.081       .  S
C835        C836   1.342       .  D
C835        H843   1.086       .  S
C836        H844   1.085       .  S
C837        C838   1.342       .  D
C837        H845   1.087       .  S
C838        H846   1.085       .  S
O847        C863   1.266       .  A
O847       Zn853   1.962       .  S
C848        O864   1.269       .  A
C848        O861   1.270       .  A
C848       C1610   1.470       .  S
O849        C862   1.276       .  A
O849       Cd856   2.095       .  S
O850        C868   1.270       .  A
O850       Cd859   2.036       .  S
O851        C865   1.280       .  A
O851       Cd855   2.104       .  S
O852        C863   1.280       .  A
O852       Cd855   2.114       .  S
Zn853       O864   1.983       .  S
Zn853       O866   1.972       .  S
Zn853       O858   1.914       .  S
O854        C865   1.269       .  A
O854       Cd859   2.034       .  S
Cd855       O857   2.076       .  S
Cd855       O858   2.013       .  S
Cd856       O860   2.094       .  S
Cd856       O869   2.094       .  S
Cd856       O858   2.017       .  S
O857        C867   1.277       .  A
O858       Cd859   1.987       .  S
Cd859       O861   2.064       .  S
O860        C867   1.280       .  A
C862        O866   1.270       .  A
C862       C1594   1.478       .  S
C863       C1628   1.472       .  S
C865       C1684   1.471       .  S
C867       C1646   1.482       .  S
C868        O869   1.279       .  A
C868       C1666   1.468       .  S
O870        C886   1.268       .  A
O870      Zn1722   1.961       .  S
C871        O887   1.267       .  A
C871        O884   1.278       .  A
C871       C1630   1.474       .  S
O872        C885   1.274       .  A
O872       Cd879   2.085       .  S
O873        C891   1.276       .  A
O873       Cd882   2.081       .  S
O874        C888   1.274       .  A
O874      Cd2570   2.060       .  S
O875        C886   1.273       .  A
O875       Cd878   2.085       .  S
Zn876      O1716   1.970       .  S
Zn876       O887   1.974   1_545  S
Zn876      O2581   1.973   1_545  S
Zn876       O881   1.916       .  S
O877        C888   1.280       .  A
Cd878      O2566   2.060   1_455  S
Cd878       O880   2.080       .  S
Cd878      O1727   2.005   1_455  S
Cd879      O2584   2.065   1_455  S
Cd879      O2573   2.001   1_455  S
O880        C890   1.277       .  A
O881      Cd1724   2.007       .  S
O881      Cd2571   2.001   1_545  S
O881       Cd882   2.017   1_545  S
Cd882       O884   2.106       .  S
O883        C890   1.274       .  A
C885        O889   1.269       .  A
C885       C1592   1.477       .  S
C886       C1612   1.473       .  S
C888       C1556   1.475       .  S
O889      Zn2568   1.977   1_565  S
C890       C1574   1.476       .  S
C891        O892   1.277       .  A
C891       C1540   1.479       .  S
O892      Cd2571   2.069       .  S
C893        H894   1.111       .  S
C893        C899   1.545       .  S
C893        C898   1.550       .  S
C893        C897   1.549       .  S
C895        H896   1.111       .  S
C895        C901   1.519       .  S
C895        C900   1.529       .  S
C895        C902   1.526       .  S
C897        C900   1.379       .  D
C897       C1486   1.490       .  S
C898        C901   1.375       .  D
C898       C1504   1.496       .  S
C899        C902   1.378       .  D
C899       C1522   1.496       .  S
C900       C1448   1.492       .  S
C901       C1432   1.470       .  S
C902       C1466   1.471       .  S
C903        H904   1.112       .  S
C903       C1755   1.542       .  S
C903       C2599   1.542       .  S
C905        H906   1.110       .  S
C905       C2602   1.537       .  S
C905       C1758   1.538       .  S
C907       C2595   1.543       .  S
C907        C910   1.380       .  D
C907       C1520   1.494       .  S
C908        C911   1.378       .  D
C908       C1502   1.492       .  S
C909       C1749   1.542   1_565  S
C909        C912   1.376       .  D
C909       C1484   1.492       .  S
C910       C2597   1.533   1_455  S
C910       C1414   1.482       .  S
C911       C1378   1.481       .  S
C912       C1751   1.535   1_455  S
C912       C1394   1.487       .  S
C913        H914   1.111       .  S
C913        C919   1.550       .  S
C913        C918   1.543       .  S
C913        C917   1.543       .  S
C915        H916   1.110       .  S
C915        C921   1.528       .  S
C915        C920   1.529       .  S
C915        C922   1.526       .  S
C917        C920   1.379       .  D
C917       C1358   1.492       .  S
C918        C921   1.378       .  D
C918       C1322   1.493       .  S
C919        C922   1.376       .  D
C919       C1340   1.493       .  S
C920       C1306   1.478       .  S
C921       C1268   1.474       .  S
C922       C1286   1.486       .  S
C923        H924   1.112       .  S
C923        C929   1.537       .  S
C923        C928   1.546       .  S
C923        C927   1.542       .  S
C925        H926   1.109       .  S
C925        C931   1.532       .  S
C925        C930   1.531       .  S
C925        C932   1.539       .  S
C927        C930   1.380       .  D
C927       C1360   1.490       .  S
C928        C931   1.377       .  D
C928       C1342   1.495       .  S
C929        C932   1.376       .  D
C929       C1324   1.491       .  S
C930       C1682   1.480       .  S
C931       C1664   1.488       .  S
C932       C1648   1.488       .  S
O933        C949   1.273       .  A
O933       Zn939   2.000       .  S
C934        O950   1.271       .  A
C934        O947   1.275       .  A
C934       C1270   1.474       .  S
O935        C948   1.278       .  A
O935       Cd942   2.092       .  S
O936        C954   1.274       .  A
O936       Cd945   2.065       .  S
O937        C951   1.276       .  A
O937       Cd941   2.074       .  S
O938        C949   1.276       .  A
O938       Cd941   2.084       .  S
Zn939       O950   2.007       .  S
Zn939       O952   1.999       .  S
Zn939       O944   1.935       .  S
O940        C951   1.273       .  A
O940       Cd945   2.070       .  S
Cd941       O943   2.067       .  S
Cd941       O944   2.003       .  S
Cd942       O946   2.081       .  S
Cd942       O955   2.088       .  S
Cd942       O944   2.010       .  S
O943        C953   1.275       .  A
O944       Cd945   1.999       .  S
Cd945       O947   2.070       .  S
O946        C953   1.275       .  A
C948        O952   1.271       .  A
C948       C1304   1.476       .  S
C949       C1288   1.478       .  S
C951       C1214   1.477       .  S
C953       C1232   1.475       .  S
C954        O955   1.278       .  A
C954       C1252   1.477       .  S
O956        C972   1.268       .  A
O956       Zn962   1.988       .  S
C957        O973   1.270       .  A
C957        O970   1.276       .  A
C957       C1430   1.470       .  S
O958        C971   1.279       .  A
O958       Cd965   2.112       .  S
O959        C977   1.274       .  A
O959       Cd968   2.070       .  S
O960        C974   1.272       .  A
O960      Cd2656   2.053       .  S
O961        C972   1.275       .  A
O961       Cd964   2.073       .  S
Zn962      O1819   1.982   1_455  S
Zn962       O967   1.920       .  S
O963        C974   1.278       .  A
Cd964      O2652   2.053   1_455  S
Cd964       O966   2.070       .  S
Cd964       O967   1.994       .  S
Cd965      O2670   2.081   1_455  S
O966        C976   1.275       .  A
O967      Cd1814   2.003   1_455  S
Cd968       O970   2.080       .  S
Cd968      O1813   2.007   1_565  S
O969        C976   1.277       .  A
C971        O975   1.269       .  A
C971       C1450   1.476       .  S
C972       C1468   1.469       .  S
O973      Zn1808   1.991       .  S
C974       C1216   1.475       .  S
C976       C1250   1.477       .  S
C977        O978   1.276       .  A
C977       C1234   1.473       .  S
O978      Cd2657   2.079       .  S
C979        H980   1.112       .  S
C979        C985   1.539       .  S
C979        C984   1.544       .  S
C979        C983   1.541       .  S
C981        H982   1.108       .  S
C981        C987   1.534       .  S
C981        C986   1.538       .  S
C981        C988   1.532       .  S
C983        C986   1.376       .  D
C983       C1160   1.495       .  S
C984        C987   1.377       .  D
C984       C1180   1.489       .  S
C985        C988   1.380       .  D
C985       C1198   1.487       .  S
C986       C1558   1.485       .  S
C987       C1538   1.490       .  S
C988       C1576   1.484       .  S
C989        H990   1.109       .  S
C989       C1841   1.534       .  S
C989        C994   1.533   1_545  S
C991        H992   1.112       .  S
C991        C997   1.544   1_545  S
C991       C1844   1.544       .  S
C993        C996   1.376       .  D
C993       C1124   1.484       .  S
C994        C997   1.376       .  D
C994       C1108   1.486       .  S
C995       C1835   1.532       .  S
C995        C998   1.380       .  D
C995       C1142   1.489       .  S
C996       C1162   1.495       .  S
C997       C1178   1.489       .  S
C998       C1837   1.544       .  S
C998       C1196   1.485       .  S
O999       C1015   1.275       .  A
O999      Zn1005   2.031       .  S
C1000      O1016   1.276       .  A
C1000      O1013   1.277       .  A
C1000      C1090   1.484       .  S
O1001      C1014   1.273       .  A
O1001     Cd1008   2.066       .  S
O1002      C1020   1.279       .  A
O1002     Cd1011   2.096       .  S
O1003      C1017   1.271       .  A
O1003     Cd1007   2.043       .  S
O1004      C1015   1.271       .  A
O1004     Cd1007   2.052       .  S
Zn1005     O1016   2.021       .  S
Zn1005     O1018   2.017       .  S
Zn1005     O1010   1.947       .  S
O1006      C1017   1.279       .  A
O1006     Cd1011   2.096       .  S
Cd1007     O1009   2.062       .  S
Cd1007     O1010   1.989       .  S
Cd1008     O1012   2.077       .  S
Cd1008     O1021   2.055       .  S
Cd1008     O1010   1.998       .  S
O1009      C1019   1.272       .  A
O1010     Cd1011   2.015       .  S
Cd1011     O1013   2.089       .  S
O1012      C1019   1.275       .  A
C1014      O1018   1.275       .  A
C1014      C1054   1.475       .  S
C1015      C1070   1.473       .  S
C1017      C1396   1.472       .  S
C1019      C1376   1.476       .  S
C1020      O1021   1.273       .  A
C1020      C1412   1.476       .  S
O1022      C1038   1.275       .  A
O1022     Zn1028   2.030       .  S
C1023      O1039   1.275       .  A
C1023      O1036   1.275       .  A
C1023      C1072   1.480       .  S
O1024      C1037   1.274       .  A
O1024     Cd1031   2.066       .  S
O1025      C1043   1.278       .  A
O1025     Cd1034   2.088       .  S
O1026      C1040   1.276       .  A
O1026     Cd1030   2.073       .  S
O1027      C1038   1.274       .  A
O1027     Cd1030   2.076       .  S
Zn1028     O1039   2.014       .  S
Zn1028     O1041   2.018       .  S
Zn1028     O1033   1.949       .  S
O1029      C1040   1.274       .  A
O1029     Cd1034   2.071       .  S
Cd1030     O1032   2.073       .  S
Cd1030     O1033   2.005       .  S
Cd1031     O1035   2.064       .  S
Cd1031     O1044   2.079       .  S
Cd1031     O1033   2.000       .  S
O1032      C1042   1.274       .  A
O1033     Cd1034   2.007       .  S
Cd1034     O1036   2.080       .  S
O1035      C1042   1.275       .  A
C1037      O1041   1.275       .  A
C1037      C1052   1.475       .  S
C1038      C1088   1.481       .  S
C1040      C1126   1.476       .  S
C1042      C1106   1.475       .  S
C1043      O1044   1.275       .  A
C1043      C1144   1.485       .  S
C1045      C1053   1.486       .  S
C1045      C1046   1.402       .  A
C1045      C1050   1.408       .  A
C1046      C1047   1.396       .  A
C1046      H1055   1.084       .  S
C1047      C1048   1.409       .  A
C1047      H1056   1.079   1_556  S
C1048      C1051   1.490   1_556  S
C1048      C1049   1.404       .  A
C1049      C1050   1.398       .  A
C1049      H1057   1.083       .  S
C1050      H1058   1.080       .  S
C1051      C1052   1.347       .  D
C1051      H1059   1.087   1_554  S
C1052      H1060   1.082       .  S
C1053      C1054   1.346       .  D
C1053      H1061   1.087       .  S
C1054      H1062   1.084       .  S
C1063      C1071   1.489   1_556  S
C1063      C1064   1.403       .  A
C1063      C1068   1.409   1_556  A
C1064      H1073   1.084       .  S
C1065      C1066   1.408   1_545  A
C1065      H1074   1.081       .  S
C1066      C1069   1.486       .  S
C1066      C1067   1.403       .  A
C1067      H1075   1.083       .  S
C1068      H1076   1.080       .  S
C1069      C1070   1.345       .  D
C1069      H1077   1.087       .  S
C1070      H1078   1.084       .  S
C1071      C1072   1.348       .  D
C1071      H1079   1.087       .  S
C1072      H1080   1.084       .  S
C1081      C1089   1.494       .  S
C1081      C2774   1.404       .  A
C1081      C1086   1.409   1_455  A
C1082      C2773   1.404       .  A
C1082      C1083   1.399       .  A
C1082      H1091   1.084       .  S
C1083      C1084   1.409       .  A
C1083      H1092   1.080   1_556  S
C1084      C1087   1.494   1_556  S
C1084      C1085   1.405       .  A
C1085      C2778   1.401       .  A
C1085      H1093   1.083       .  S
C1086      C2777   1.403       .  A
C1086      H1094   1.080       .  S
C1087      C1088   1.349       .  D
C1087      H1095   1.087   1_554  S
C1088      H1096   1.083       .  S
C1089      C1090   1.350       .  D
C1089      H1097   1.087       .  S
C1090      H1098   1.083       .  S
C1099      C1107   1.481       .  S
C1099      C1100   1.402       .  A
C1099      C1104   1.406       .  A
C1100      C1101   1.398       .  A
C1100      H1109   1.083       .  S
C1101      C1102   1.407       .  A
C1101      H1110   1.082       .  S
C1102      C1105   1.482       .  S
C1102      C1103   1.402       .  A
C1103      C1104   1.396       .  A
C1103      H1111   1.084       .  S
C1104      H1112   1.082       .  S
C1105      C1106   1.345       .  D
C1105      H1113   1.087       .  S
C1106      H1114   1.085       .  S
C1107      C1108   1.343       .  D
C1107      H1115   1.086       .  S
C1108      H1116   1.081       .  S
C1117      C1125   1.485       .  S
C1117      C1118   1.402       .  A
C1117      C1122   1.408       .  A
C1118      C1119   1.398       .  A
C1118      H1127   1.083       .  S
C1119      C1120   1.408       .  A
C1119      H1128   1.082       .  S
C1120      C1123   1.484       .  S
C1120      C1121   1.402       .  A
C1121      C1122   1.398       .  A
C1121      H1129   1.083       .  S
C1122      H1130   1.082       .  S
C1123      C1124   1.343       .  D
C1123      H1131   1.087       .  S
C1124      H1132   1.085       .  S
C1125      C1126   1.345       .  D
C1125      H1133   1.087       .  S
C1126      H1134   1.085       .  S
C1135      C1143   1.496       .  S
C1135      C1136   1.404       .  A
C1135      C1140   1.411       .  A
C1136      C1137   1.398       .  A
C1136      H1145   1.083       .  S
C1137      C1138   1.407       .  A
C1137      H1146   1.082       .  S
C1138      C1141   1.494       .  S
C1138      C1139   1.405       .  A
C1139      C1140   1.405       .  A
C1139      H1147   1.083       .  S
C1140      H1148   1.080       .  S
C1141      C1142   1.347       .  D
C1141      H1149   1.086       .  S
C1142      H1150   1.085       .  S
C1143      C1144   1.349       .  D
C1143      H1151   1.087       .  S
C1144      H1152   1.084       .  S
C1153      C1161   1.495       .  S
C1153      C1154   1.407       .  A
C1153      C1158   1.408       .  A
C1154      C1155   1.401       .  A
C1154      H1163   1.083       .  S
C1155      C1156   1.407       .  A
C1155      H1164   1.081       .  S
C1156      C1159   1.494       .  S
C1156      C1157   1.406       .  A
C1157      C1158   1.402       .  A
C1157      H1165   1.083       .  S
C1158      H1166   1.080       .  S
C1159      C1160   1.351       .  D
C1159      H1167   1.086       .  S
C1160      H1168   1.083       .  S
C1161      C1162   1.352       .  D
C1161      H1169   1.087       .  S
C1162      H1170   1.083       .  S
C1171      C1179   1.491       .  S
C1171      C1172   1.404       .  A
C1171      C1176   1.408       .  A
C1172      C1173   1.401       .  A
C1172      H1181   1.083       .  S
C1173      C1174   1.408       .  A
C1173      H1182   1.081       .  S
C1174      C1177   1.492       .  S
C1174      C1175   1.405       .  A
C1175      C1176   1.401       .  A
C1175      H1183   1.083       .  S
C1176      H1184   1.082       .  S
C1177      C1178   1.347       .  D
C1177      H1185   1.087       .  S
C1178      H1186   1.084       .  S
C1179      C1180   1.347       .  D
C1179      H1187   1.087       .  S
C1180      H1188   1.085       .  S
C1189      C1197   1.486       .  S
C1189      C1190   1.403       .  A
C1189      C1194   1.407       .  A
C1190      C1191   1.398       .  A
C1190      H1199   1.084       .  S
C1191      C1192   1.408       .  A
C1191      H1200   1.081       .  S
C1192      C1195   1.488       .  S
C1192      C1193   1.404       .  A
C1193      C1194   1.399       .  A
C1193      H1201   1.084       .  S
C1194      H1202   1.082       .  S
C1195      C1196   1.345       .  D
C1195      H1203   1.086       .  S
C1196      H1204   1.083       .  S
C1197      C1198   1.345       .  D
C1197      H1205   1.086       .  S
C1198      H1206   1.084       .  S
C1207      C1215   1.490       .  S
C1207      C1208   1.404       .  A
C1207      C1212   1.408       .  A
C1208      C1209   1.401       .  A
C1208      H1217   1.083       .  S
C1209      C1210   1.409       .  A
C1209      H1218   1.081       .  S
C1210      C1213   1.488       .  S
C1210      C1211   1.403       .  A
C1211      C1212   1.397       .  A
C1211      H1219   1.084       .  S
C1212      H1220   1.081       .  S
C1213      C1214   1.346       .  D
C1213      H1221   1.087       .  S
C1214      H1222   1.085       .  S
C1215      C1216   1.345       .  D
C1215      H1223   1.087       .  S
C1216      H1224   1.085       .  S
C1225      C1233   1.476       .  S
C1225      C1226   1.402       .  A
C1225      C1230   1.404       .  A
C1226      C1227   1.399       .  A
C1226      H1235   1.083       .  S
C1227      C1228   1.405       .  A
C1227      H1236   1.083       .  S
C1228      C1231   1.480       .  S
C1228      C1229   1.403       .  A
C1229      C1230   1.399       .  A
C1229      H1237   1.083       .  S
C1230      H1238   1.083       .  S
C1231      C1232   1.345       .  D
C1231      H1239   1.087       .  S
C1232      H1240   1.087       .  S
C1233      C1234   1.341       .  D
C1233      H1241   1.087       .  S
C1234      H1242   1.087       .  S
C1243      C1251   1.489       .  S
C1243      C1244   1.403       .  A
C1243      C1248   1.408       .  A
C1244      C1245   1.398       .  A
C1244      H1253   1.083       .  S
C1245      C1246   1.407       .  A
C1245      H1254   1.081       .  S
C1246      C1249   1.489       .  S
C1246      C1247   1.405       .  A
C1247      C1248   1.400       .  A
C1247      H1255   1.083       .  S
C1248      H1256   1.081       .  S
C1249      C1250   1.347       .  D
C1249      H1257   1.087       .  S
C1250      H1258   1.084       .  S
C1251      C1252   1.346       .  D
C1251      H1259   1.087       .  S
C1252      H1260   1.085       .  S
C1261      C1269   1.486       .  S
C1261      C1266   1.410       .  A
C1262      C1263   1.394       .  A
C1262      H1271   1.084       .  S
C1263      C1264   1.407       .  A
C1263      H1272   1.082       .  S
C1264      C1267   1.481       .  S
C1264      C1265   1.401       .  A
C1266      H1274   1.080       .  S
C1267      C1268   1.341       .  D
C1267      H1275   1.087       .  S
C1268      H1276   1.085       .  S
C1269      C1270   1.344       .  D
C1269      H1277   1.087       .  S
C1270      H1278   1.084       .  S
C1279      C1287   1.487       .  S
C1279      C2972   1.406       .  A
C1279      C2976   1.408       .  A
C1280      C2971   1.404       .  A
C1280      C1281   1.395   1_655  A
C1280      H1289   1.084       .  S
C1281      C1282   1.405       .  A
C1281      H1290   1.082       .  S
C1282      C1285   1.482       .  S
C1282      C1283   1.404       .  A
C1283      C1284   1.399       .  A
C1283      H1291   1.084       .  S
C1284      C2971   1.408   1_455  A
C1284      H2984   1.080       .  S
C1285      C1286   1.346       .  D
C1285      H1293   1.085       .  S
C1286      H1294   1.084       .  S
C1287      C1288   1.349       .  D
C1287      H1295   1.087       .  S
C1288      H1296   1.083       .  S
H1292      C2976   1.080       .  S
C1297      C1305   1.485       .  S
C1297      C1298   1.401       .  A
C1297      C1302   1.408       .  A
C1298      C1299   1.399       .  A
C1298      H1307   1.084       .  S
C1299      C1300   1.411       .  A
C1299      H1308   1.081       .  S
C1300      C1303   1.490       .  S
C1300      C1301   1.402       .  A
C1301      C1302   1.397       .  A
C1301      H1309   1.083       .  S
C1302      H1310   1.082       .  S
C1303      C1304   1.344       .  D
C1303      H1311   1.087       .  S
C1304      H1312   1.084       .  S
C1305      C1306   1.342       .  D
C1305      H1313   1.087       .  S
C1306      H1314   1.084       .  S
C1315      C1323   1.490       .  S
C1315      C1316   1.404       .  A
C1315      C1320   1.408       .  A
C1316      H1325   1.083       .  S
C1317      C1318   1.408       .  A
C1317      H1326   1.081       .  S
C1318      C1321   1.493       .  S
C1318      C1319   1.405       .  A
C1319      H1327   1.084       .  S
C1320      H1328   1.081       .  S
C1321      C1322   1.349       .  D
C1321      H1329   1.085       .  S
C1322      H1330   1.083       .  S
C1323      C1324   1.347       .  D
C1323      H1331   1.087       .  S
C1324      H1332   1.084       .  S
C1333      C1341   1.494       .  S
C1333      C3026   1.407       .  A
C1333      C1338   1.407       .  A
C1334      C3025   1.406       .  A
C1334      C1335   1.402   1_655  A
C1334      H1343   1.083       .  S
C1335      C1336   1.407       .  A
C1335      H1344   1.081       .  S
C1336      C1339   1.492       .  S
C1336      C1337   1.406       .  A
C1337      C3030   1.401   1_455  A
C1337      H1345   1.083       .  S
C1338      C3029   1.400       .  A
C1338      H1346   1.080       .  S
C1339      C1340   1.351       .  D
C1339      H1347   1.087       .  S
C1340      H1348   1.084       .  S
C1341      C1342   1.352       .  D
C1341      H1349   1.087       .  S
C1342      H1350   1.082       .  S
C1351      C1359   1.490       .  S
C1351      C1352   1.404       .  A
C1351      C1356   1.407       .  A
C1352      C1353   1.401       .  A
C1352      H1361   1.084       .  S
C1353      C1354   1.409       .  A
C1353      H1362   1.081       .  S
C1354      C1357   1.492       .  S
C1354      C1355   1.405       .  A
C1355      C1356   1.400       .  A
C1355      H1363   1.084       .  S
C1356      H1364   1.082       .  S
C1357      C1358   1.348       .  D
C1357      H1365   1.085       .  S
C1358      H1366   1.083       .  S
C1359      C1360   1.347       .  D
C1359      H1367   1.085       .  S
C1360      H1368   1.084       .  S
C1369      C1377   1.486       .  S
C1369      C1370   1.401       .  A
C1369      C1374   1.409       .  A
C1370      C1371   1.399       .  A
C1370      H1379   1.083       .  S
C1371      C1372   1.410       .  A
C1371      H1380   1.081       .  S
C1372      C1375   1.487       .  S
C1372      C1373   1.402       .  A
C1373      C1374   1.397       .  A
C1373      H1381   1.083       .  S
C1374      H1382   1.082       .  S
C1375      C1376   1.345       .  D
C1375      H1383   1.087       .  S
C1376      H1384   1.084       .  S
C1377      C1378   1.342       .  D
C1377      H1385   1.087       .  S
C1378      H1386   1.085       .  S
C1387      C1395   1.486       .  S
C1387      C1388   1.402       .  A
C1387      C1392   1.408       .  A
C1388      C1389   1.400       .  A
C1388      H1397   1.083       .  S
C1389      C1390   1.410       .  A
C1389      H1398   1.080       .  S
C1390      C1393   1.487       .  S
C1390      C1391   1.402       .  A
C1391      C1392   1.395       .  A
C1391      H1399   1.084       .  S
C1392      H1400   1.082       .  S
C1393      C1394   1.344       .  D
C1394      H1402   1.083       .  S
C1395      C1396   1.343       .  D
C1395      H1403   1.087       .  S
C1396      H1404   1.086       .  S
C1405      C1413   1.487       .  S
C1405      C1406   1.401       .  A
C1405      C1410   1.409       .  A
C1406      C1407   1.399       .  A
C1406      H1415   1.083       .  S
C1407      C1408   1.411       .  A
C1407      H1416   1.081       .  S
C1408      C1411   1.491       .  S
C1408      C1409   1.402       .  A
C1409      C1410   1.398       .  A
C1409      H1417   1.083       .  S
C1410      H1418   1.082       .  S
C1411      C1412   1.344       .  D
C1411      H1419   1.087       .  S
C1412      H1420   1.084       .  S
C1413      C1414   1.343       .  D
C1413      H1421   1.087       .  S
C1414      H1422   1.085       .  S
C1423      C1431   1.480       .  S
C1423      C1424   1.399       .  A
C1423      C1428   1.409       .  A
C1424      C1425   1.398       .  A
C1424      H1433   1.083       .  S
C1425      C1426   1.410       .  A
C1425      H1434   1.082       .  S
C1426      C1429   1.482       .  S
C1426      C1427   1.400       .  A
C1427      C1428   1.395       .  A
C1427      H1435   1.084       .  S
C1428      H1436   1.082       .  S
C1429      C1430   1.341       .  D
C1429      H1437   1.087       .  S
C1430      H1438   1.085       .  S
C1431      C1432   1.339       .  D
C1431      H1439   1.087       .  S
C1432      H1440   1.085       .  S
C1441      C1449   1.493       .  S
C1441      C1442   1.410       .  A
C1441      C1446   1.402       .  A
C1442      C1443   1.398       .  A
C1442      H1451   1.081       .  S
C1443      C1444   1.407       .  A
C1443      H1452   1.079       .  S
C1444      C1447   1.492       .  S
C1444      C1445   1.407       .  A
C1445      C1446   1.400       .  A
C1445      H1453   1.083       .  S
C1446      H1454   1.083       .  S
C1447      C1448   1.351       .  D
C1447      H1455   1.085       .  S
C1448      H1456   1.081       .  S
C1449      C1450   1.344       .  D
C1449      H1457   1.087       .  S
C1450      H1458   1.085       .  S
C1459      C1467   1.481       .  S
C1459      C1460   1.399       .  A
C1459      C1464   1.410       .  A
C1460      C1461   1.393       .  A
C1460      H1469   1.084       .  S
C1461      C1462   1.407       .  A
C1461      H1470   1.083       .  S
C1462      C1465   1.477       .  S
C1462      C1463   1.400       .  A
C1463      C1464   1.398       .  A
C1463      H1471   1.084       .  S
C1464      H1472   1.082       .  S
C1465      C1466   1.339       .  D
C1465      H1473   1.086       .  S
C1466      H1474   1.086       .  S
C1467      C1468   1.341       .  D
C1467      H1475   1.087       .  S
C1468      H1476   1.085       .  S
C1477      C1485   1.493       .  S
C1477      C1478   1.406       .  A
C1477      C1482   1.408       .  A
C1478      C1479   1.400       .  A
C1478      H1487   1.084       .  S
C1479      C1480   1.407       .  A
C1479      H1488   1.080       .  S
C1480      C1483   1.493       .  S
C1480      C1481   1.406       .  A
C1481      C1482   1.400       .  A
C1481      H1489   1.084       .  S
C1482      H1490   1.080       .  S
C1483      C1484   1.350       .  D
C1483      H1491   1.087       .  S
C1484      H1492   1.082       .  S
C1485      C1486   1.350       .  D
C1485      H1493   1.086       .  S
C1486      H1494   1.082       .  S
C1495      C1503   1.496       .  S
C1495      C1496   1.407       .  A
C1495      C1500   1.408       .  A
C1496      C1497   1.401       .  A
C1496      H1505   1.084       .  S
C1497      C1498   1.406       .  A
C1497      H1506   1.081       .  S
C1498      C1501   1.493       .  S
C1498      C1499   1.406       .  A
C1499      C1500   1.402       .  A
C1499      H1507   1.084       .  S
C1500      H1508   1.080       .  S
C1501      C1502   1.350       .  D
C1501      H1509   1.086       .  S
C1502      H1510   1.083       .  S
C1503      C1504   1.352       .  D
C1503      H1511   1.084       .  S
C1504      H1512   1.082       .  S
C1513      C1521   1.499       .  S
C1513      C1514   1.406       .  A
C1513      C1518   1.410       .  A
C1514      C1515   1.401       .  A
C1514      H1523   1.083       .  S
C1515      C1516   1.410       .  A
C1515      H1524   1.079       .  S
C1516      C1519   1.500       .  S
C1516      C1517   1.406       .  A
C1517      C1518   1.403       .  A
C1517      H1525   1.084       .  S
C1518      H1526   1.079       .  S
C1519      C1520   1.350       .  D
C1519      H1527   1.086       .  S
C1520      H1528   1.081       .  S
C1521      C1522   1.351       .  D
C1521      H1529   1.085       .  S
C1522      H1530   1.082       .  S
C1531      C1539   1.486       .  S
C1531      C1532   1.402       .  A
C1531      C1536   1.408       .  A
C1532      C1533   1.395       .  A
C1532      H1541   1.084       .  S
C1533      C1534   1.407       .  A
C1533      H1542   1.082       .  S
C1534      C1537   1.486       .  S
C1534      C1535   1.403       .  A
C1535      C1536   1.401       .  A
C1535      H1543   1.083       .  S
C1536      H1544   1.081       .  S
C1537      C1538   1.345       .  D
C1537      H1545   1.085       .  S
C1538      H1546   1.079       .  S
C1539      C1540   1.346       .  D
C1539      H1547   1.087       .  S
C1540      H1548   1.085       .  S
C1549      C1557   1.484       .  S
C1549      C1550   1.402       .  A
C1549      C1554   1.408       .  A
C1550      C1551   1.397       .  A
C1550      H1559   1.083       .  S
C1551      C1552   1.407       .  A
C1551      H1560   1.082       .  S
C1552      C1555   1.485       .  S
C1552      C1553   1.402       .  A
C1553      C1554   1.399       .  A
C1553      H1561   1.083       .  S
C1554      H1562   1.082       .  S
C1555      C1556   1.344       .  D
C1555      H1563   1.087       .  S
C1556      H1564   1.086       .  S
C1557      C1558   1.343       .  D
C1557      H1565   1.086       .  S
C1558      H1566   1.084       .  S
C1567      C1575   1.487       .  S
C1567      C1568   1.402       .  A
C1567      C1572   1.409       .  A
C1568      C1569   1.399       .  A
C1568      H1577   1.083       .  S
C1569      C1570   1.409       .  A
C1569      H1578   1.081       .  S
C1570      C1573   1.489       .  S
C1570      C1571   1.403       .  A
C1571      C1572   1.397       .  A
C1571      H1579   1.083       .  S
C1572      H1580   1.081       .  S
C1573      C1574   1.346       .  D
C1573      H1581   1.087       .  S
C1574      H1582   1.084       .  S
C1575      C1576   1.344       .  D
C1575      H1583   1.087       .  S
C1576      H1584   1.084       .  S
C1585      C1593   1.484       .  S
C1585      C1586   1.406       .  A
C1585      C1590   1.405       .  A
C1586      C1587   1.396       .  A
C1586      H1595   1.084       .  S
C1587      C1588   1.405       .  A
C1587      H1596   1.081       .  S
C1588      C1591   1.483       .  S
C1588      C1589   1.405       .  A
C1589      C1590   1.396       .  A
C1589      H1597   1.084       .  S
C1590      H1598   1.080       .  S
C1591      C1592   1.350       .  D
C1591      H1599   1.087       .  S
C1592      H1600   1.084       .  S
C1593      C1594   1.351       .  D
C1593      H1601   1.087       .  S
C1594      H1602   1.083       .  S
C1603      C1611   1.475       .  S
C1603      C1604   1.403       .  A
C1603      C1608   1.404       .  A
C1604      C1605   1.393       .  A
C1604      H1613   1.084       .  S
C1605      C1606   1.404       .  A
C1605      H1614   1.081       .  S
C1606      C1609   1.477       .  S
C1606      C1607   1.404       .  A
C1607      C1608   1.396       .  A
C1607      H1615   1.083       .  S
C1608      H1616   1.082       .  S
C1609      C1610   1.346       .  D
C1609      H1617   1.087       .  S
C1610      H1618   1.085       .  S
C1611      C1612   1.348       .  D
C1611      H1619   1.087       .  S
C1612      H1620   1.085       .  S
C1621      C1629   1.488       .  S
C1621      C1622   1.400       .  A
C1621      C1626   1.411       .  A
C1622      C1623   1.398       .  A
C1622      H1631   1.083       .  S
C1623      C1624   1.411       .  A
C1623      H1632   1.082       .  S
C1624      C1627   1.489       .  S
C1624      C1625   1.400       .  A
C1625      C1626   1.399       .  A
C1625      H1633   1.083       .  S
C1626      H1634   1.082       .  S
C1627      C1628   1.340       .  D
C1627      H1635   1.086       .  S
C1628      H1636   1.086       .  S
C1629      C1630   1.341       .  D
C1629      H1637   1.087       .  S
C1630      H1638   1.086       .  S
C1639      C1647   1.487       .  S
C1639      C1640   1.403       .  A
C1639      C1644   1.408       .  A
C1640      H1649   1.083       .  S
C1641      C1642   1.410   1_545  A
C1641      H1650   1.081       .  S
C1642      C1645   1.495       .  S
C1643      C1644   1.399       .  A
C1643      H1651   1.083       .  S
C1644      H1652   1.082       .  S
C1645      C1646   1.348       .  D
C1645      H1653   1.087       .  S
C1646      H1654   1.084       .  S
C1647      C1648   1.345       .  D
C1647      H1655   1.086       .  S
C1648      H1656   1.084       .  S
C1657      C1665   1.482       .  S
C1657      C1658   1.400   1_455  A
C1657      C3354   1.408   1_455  A
C1658      C3351   1.399       .  A
C1658      H1667   1.083   1_655  S
C1659      C3350   1.399       .  A
C1659      C1660   1.410       .  A
C1659      H1668   1.081       .  S
C1660      C1663   1.485       .  S
C1660      C1661   1.401       .  A
C1661      C1662   1.395       .  A
C1661      H1669   1.084       .  S
C1662      C3349   1.408       .  A
C1662      H3362   1.082       .  S
C1663      C1664   1.343       .  D
C1663      H1671   1.086       .  S
C1664      H1672   1.083       .  S
C1665      C1666   1.341       .  D
C1665      H1673   1.087       .  S
C1666      H1674   1.087       .  S
H1670      C3354   1.082       .  S
C1675      C1683   1.486       .  S
C1675      C1676   1.400       .  A
C1675      C1680   1.410       .  A
C1676      C1677   1.397       .  A
C1676      H1685   1.083       .  S
C1677      C1678   1.411       .  A
C1677      H1686   1.081       .  S
C1678      C1681   1.486       .  S
C1678      C1679   1.400       .  A
C1679      C1680   1.397       .  A
C1679      H1687   1.083       .  S
C1680      H1688   1.082       .  S
C1681      C1682   1.341       .  D
C1681      H1689   1.087       .  S
C1682      H1690   1.084       .  S
C1683      C1684   1.341       .  D
C1683      H1691   1.087       .  S
C1684      H1692   1.086       .  S
O1693      C1709   1.267       .  A
O1693     Zn1699   1.962       .  S
C1694      O1710   1.269       .  A
C1694      O1707   1.271       .  A
C1694      C2456   1.473       .  S
O1695      C1708   1.275       .  A
O1695     Cd1702   2.092       .  S
O1696      C1714   1.271       .  A
O1696     Cd1705   2.042       .  S
O1697      C1711   1.280       .  A
O1697     Cd1701   2.106       .  S
O1698      C1709   1.280       .  A
O1698     Cd1701   2.117       .  S
Zn1699     O1710   1.989       .  S
Zn1699     O1712   1.971       .  S
Zn1699     O1704   1.912       .  S
O1700      C1711   1.270       .  A
O1700     Cd1705   2.035       .  S
Cd1701     O1703   2.075       .  S
Cd1701     O1704   2.014       .  S
Cd1702     O1706   2.093       .  S
Cd1702     O1715   2.100       .  S
Cd1702     O1704   2.016       .  S
O1703      C1713   1.276       .  A
O1704     Cd1705   1.983       .  S
Cd1705     O1707   2.068       .  S
O1706      C1713   1.280       .  A
C1708      O1712   1.270       .  A
C1708      C2440   1.476       .  S
C1709      C2474   1.473       .  S
C1711      C2530   1.472       .  S
C1713      C2492   1.481       .  S
C1714      O1715   1.279       .  A
C1714      C2512   1.471       .  S
O1716      C1732   1.269       .  A
C1717      O1733   1.266       .  A
C1717      O1730   1.278       .  A
C1717      C2476   1.473       .  S
O1718      C1731   1.274       .  A
O1718     Cd1725   2.083       .  S
O1719      C1737   1.276       .  A
O1719     Cd1728   2.081       .  S
O1720      C1734   1.275       .  A
O1721      C1732   1.274       .  A
O1721     Cd1724   2.090       .  S
Zn1722     O1733   1.969   1_455  S
Zn1722     O1727   1.907   1_455  S
O1723      C1734   1.279       .  A
O1723     Cd2574   2.093   1_545  S
Cd1724     O1726   2.089       .  S
Cd1725     O2575   2.065       .  S
O1726      C1736   1.278       .  A
O1727     Cd1728   2.015       .  S
Cd1728     O2569   2.093       .  S
Cd1728     O1730   2.107       .  S
O1729      C1736   1.275   1_565  A
O1729     Cd2571   2.073       .  S
C1731      O1735   1.269       .  A
C1731      C2438   1.475       .  S
C1732      C2458   1.477       .  S
C1734      C2402   1.477       .  S
C1736      C2420   1.481       .  S
C1737      O1738   1.276       .  A
C1737      C2386   1.477       .  S
C1739      H1740   1.111       .  S
C1739      C1745   1.548       .  S
C1739      C1744   1.549       .  S
C1739      C1743   1.549       .  S
C1741      H1742   1.111       .  S
C1741      C1747   1.519       .  S
C1741      C1746   1.530       .  S
C1741      C1748   1.524       .  S
C1743      C1746   1.379       .  D
C1743      C2332   1.491       .  S
C1744      C1747   1.374       .  D
C1744      C2350   1.495       .  S
C1745      C1748   1.378       .  D
C1745      C2368   1.494       .  S
C1746      C2294   1.488       .  S
C1747      C2278   1.470       .  S
C1748      C2312   1.475       .  S
C1749      H1750   1.112       .  S
C1749      C2600   1.549   1_445  S
C1751      H1752   1.110       .  S
C1751      C2603   1.527       .  S
C1753      C1756   1.380       .  D
C1753      C2366   1.494       .  S
C1754      C2595   1.548   1_655  S
C1754      C1757   1.377       .  D
C1754      C2348   1.491       .  S
C1755      C1758   1.377       .  D
C1755      C2330   1.492       .  S
C1756      C2260   1.485       .  S
C1757      C2597   1.524       .  S
C1757      C2224   1.480       .  S
C1758      C2240   1.491       .  S
C1759      H1760   1.111       .  S
C1759      C1765   1.550       .  S
C1759      C1764   1.544       .  S
C1759      C1763   1.543       .  S
C1761      H1762   1.111       .  S
C1761      C1767   1.527       .  S
C1761      C1766   1.529       .  S
C1761      C1768   1.525       .  S
C1763      C1766   1.378       .  D
C1763      C2204   1.492       .  S
C1764      C1767   1.378       .  D
C1764      C2168   1.492       .  S
C1765      C1768   1.376       .  D
C1765      C2186   1.493       .  S
C1766      C2152   1.476       .  S
C1767      C2114   1.476       .  S
C1768      C2132   1.485       .  S
C1769      H1770   1.112       .  S
C1769      C1775   1.535       .  S
C1769      C1774   1.544       .  S
C1769      C1773   1.542       .  S
C1771      H1772   1.109       .  S
C1771      C1777   1.535       .  S
C1771      C1776   1.533       .  S
C1771      C1778   1.544       .  S
C1773      C1776   1.381       .  D
C1773      C2206   1.489       .  S
C1774      C1777   1.377       .  D
C1774      C2188   1.494       .  S
C1775      C1778   1.377       .  D
C1775      C2170   1.493       .  S
C1776      C2528   1.480       .  S
C1777      C2510   1.491       .  S
C1778      C2494   1.491       .  S
O1779      C1795   1.273       .  A
O1779     Zn1785   1.995       .  S
C1780      O1796   1.271       .  A
C1780      O1793   1.274       .  A
C1780      C2116   1.473       .  S
O1781      C1794   1.278       .  A
O1781     Cd1788   2.092       .  S
O1782      C1800   1.273       .  A
O1782     Cd1791   2.060       .  S
O1783      C1797   1.277       .  A
O1783     Cd1787   2.078       .  S
O1784      C1795   1.274       .  A
O1784     Cd1787   2.079       .  S
Zn1785     O1796   2.004       .  S
Zn1785     O1798   1.993       .  S
Zn1785     O1790   1.930       .  S
O1786      C1797   1.273       .  A
O1786     Cd1791   2.066       .  S
Cd1787     O1789   2.060       .  S
Cd1787     O1790   2.000       .  S
Cd1788     O1792   2.080       .  S
Cd1788     O1801   2.082       .  S
Cd1788     O1790   2.009       .  S
O1789      C1799   1.275       .  A
O1790     Cd1791   1.997       .  S
Cd1791     O1793   2.066       .  S
O1792      C1799   1.275       .  A
C1794      O1798   1.270       .  A
C1794      C2150   1.474       .  S
C1795      C2134   1.476       .  S
C1797      C2060   1.477       .  S
C1799      C2078   1.478       .  S
C1800      O1801   1.278       .  A
C1800      C2098   1.474       .  S
O1802      C1818   1.270       .  A
O1802     Zn1808   2.003   1_545  S
C1803      O1819   1.268       .  A
C1803      O1816   1.277       .  A
C1803      C2276   1.470       .  S
O1804      C1817   1.279       .  A
O1804     Cd1811   2.104       .  S
O1805      C1823   1.272       .  A
O1805     Cd1814   2.057       .  S
O1806      C1820   1.272       .  A
O1807      C1818   1.274       .  A
O1807     Cd1810   2.073       .  S
Zn1808     O2667   1.989       .  S
Zn1808     O1813   1.927   1_565  S
O1809      C1820   1.277       .  A
O1809     Cd2660   2.090   1_545  S
Cd1810     O1812   2.066       .  S
Cd1810     O1813   1.996       .  S
Cd1811     O2661   2.082       .  S
Cd1811     O2659   2.009       .  S
O1812      C1822   1.274       .  A
O1813     Cd2657   2.007   1_545  S
Cd1814     O2655   2.086       .  S
Cd1814     O1816   2.085       .  S
O1815      C1822   1.277       .  A
O1815     Cd2657   2.075   1_545  S
C1817      O1821   1.269       .  A
C1817      C2296   1.472       .  S
C1818      C2314   1.474       .  S
C1820      C2062   1.474       .  S
O1821     Zn2654   1.979       .  S
C1822      C2096   1.474       .  S
C1823      O1824   1.278       .  A
C1823      C2080   1.473       .  S
C1825      H1826   1.111       .  S
C1825      C1831   1.543       .  S
C1825      C1830   1.547       .  S
C1825      C1829   1.541       .  S
C1827      H1828   1.108       .  S
C1827      C1833   1.537       .  S
C1827      C1832   1.539       .  S
C1827      C1834   1.533       .  S
C1829      C1832   1.376       .  D
C1829      C2006   1.495       .  S
C1830      C1833   1.379       .  D
C1830      C2026   1.495       .  S
C1831      C1834   1.380       .  D
C1831      C2044   1.490       .  S
C1832      C2404   1.487       .  S
C1833      C2384   1.492       .  S
C1834      C2422   1.486       .  S
C1835      H1836   1.109       .  S
C1835      C1840   1.535   1_455  S
C1835      C2685   1.538   1_455  S
C1837      H1838   1.111       .  S
C1837      C1843   1.547   1_455  S
C1837      C2688   1.540   1_455  S
C1839      C2681   1.540   1_655  S
C1839      C1842   1.374       .  D
C1839      C1970   1.484       .  S
C1840      C1843   1.377       .  D
C1840      C1954   1.487       .  S
C1841      C1844   1.380       .  D
C1841      C1988   1.489       .  S
C1842      C2683   1.538   1_655  S
C1842      C2008   1.495       .  S
C1843      C2024   1.496       .  S
C1844      C2042   1.486       .  S
O1845      C1861   1.275       .  A
O1845     Zn1851   2.031       .  S
C1846      O1862   1.276       .  A
C1846      O1859   1.277       .  A
C1846      C1936   1.482       .  S
O1847      C1860   1.274       .  A
O1847     Cd1854   2.071       .  S
O1848      C1866   1.279       .  A
O1848     Cd1857   2.097       .  S
O1849      C1863   1.272       .  A
O1849     Cd1853   2.049       .  S
O1850      C1861   1.272       .  A
O1850     Cd1853   2.058       .  S
Zn1851     O1862   2.013       .  S
Zn1851     O1864   2.012       .  S
Zn1851     O1856   1.945       .  S
O1852      C1863   1.278       .  A
O1852     Cd1857   2.096       .  S
Cd1853     O1855   2.060       .  S
Cd1853     O1856   1.990       .  S
Cd1854     O1858   2.072       .  S
Cd1854     O1867   2.064       .  S
Cd1854     O1856   1.999       .  S
O1855      C1865   1.272       .  A
O1856     Cd1857   2.015       .  S
Cd1857     O1859   2.089       .  S
O1858      C1865   1.275       .  A
C1860      O1864   1.275       .  A
C1860      C1900   1.476       .  S
C1861      C1916   1.475       .  S
C1863      C2242   1.474       .  S
C1865      C2222   1.474       .  S
C1866      O1867   1.273       .  A
C1866      C2258   1.480       .  S
O1868      C1884   1.274       .  A
O1868     Zn1874   2.020       .  S
C1869      O1885   1.274       .  A
C1869      O1882   1.275       .  A
C1869      C1918   1.477       .  S
O1870      C1883   1.273       .  A
O1870     Cd1877   2.069       .  S
O1871      C1889   1.277       .  A
O1871     Cd1880   2.089       .  S
O1872      C1886   1.277       .  A
O1872     Cd1876   2.075       .  S
O1873      C1884   1.274       .  A
O1873     Cd1876   2.079       .  S
Zn1874     O1885   2.005       .  S
Zn1874     O1887   2.012       .  S
Zn1874     O1879   1.945       .  S
O1875      C1886   1.274       .  A
O1875     Cd1880   2.070       .  S
Cd1876     O1878   2.072       .  S
Cd1876     O1879   2.006       .  S
Cd1877     O1881   2.065       .  S
Cd1877     O1890   2.078       .  S
Cd1877     O1879   2.000       .  S
O1878      C1888   1.274       .  A
O1879     Cd1880   2.006       .  S
Cd1880     O1882   2.077       .  S
O1881      C1888   1.275       .  A
C1883      O1887   1.274       .  A
C1883      C1898   1.475       .  S
C1884      C1934   1.481       .  S
C1886      C1972   1.476       .  S
C1888      C1952   1.475       .  S
C1889      O1890   1.275       .  A
C1889      C1990   1.484       .  S
C1891      C1899   1.488       .  S
C1891      C1892   1.404       .  A
C1891      C1896   1.408       .  A
C1892      C1893   1.396       .  A
C1892      H1901   1.084       .  S
C1893      C1894   1.408       .  A
C1893      H1902   1.080   1_556  S
C1894      C1897   1.487   1_556  S
C1894      C1895   1.404       .  A
C1895      C1896   1.398       .  A
C1895      H1903   1.084       .  S
C1896      H1904   1.079       .  S
C1897      C1898   1.347       .  D
C1897      H1905   1.087       .  S
C1898      H1906   1.083       .  S
C1899      C1900   1.347       .  D
C1899      H1907   1.087       .  S
C1900      H1908   1.082       .  S
C1909      C1917   1.486   1_556  S
C1909      C1910   1.403       .  A
C1909      C1914   1.408   1_546  A
C1910      C2757   1.396       .  A
C1910      H1919   1.084       .  S
C1911      C2756   1.395       .  A
C1911      C1912   1.407       .  A
C1911      H1920   1.081       .  S
C1912      C1915   1.488       .  S
C1912      C1913   1.404       .  A
C1913      C2760   1.401   1_556  A
C1913      H1921   1.083       .  S
C1914      C2759   1.400   1_554  A
C1914      H1922   1.081       .  S
C1915      C1916   1.346       .  D
C1915      H1923   1.087       .  S
C1916      H1924   1.085       .  S
C1917      C1918   1.347       .  D
C1917      H1925   1.087       .  S
C1918      H1926   1.084       .  S
C1927      C1935   1.492       .  S
C1927      C1932   1.408       .  A
C1928      C1929   1.398       .  A
C1928      H1937   1.084       .  S
C1929      C1930   1.408   1_455  A
C1929      H1938   1.079   1_556  S
C1930      C1933   1.494   1_556  S
C1930      C1931   1.406       .  A
C1931      H1939   1.083       .  S
C1932      H1940   1.080       .  S
C1933      C1934   1.350       .  D
C1933      H1941   1.087   1_554  S
C1934      H1942   1.082       .  S
C1935      C1936   1.350       .  D
C1935      H1943   1.087       .  S
C1936      H1944   1.083       .  S
C1945      C1953   1.481       .  S
C1945      C1946   1.402       .  A
C1945      C1950   1.407       .  A
C1946      C1947   1.400       .  A
C1946      H1955   1.083   1_655  S
C1947      C1948   1.407       .  A
C1947      H1956   1.082       .  S
C1948      C1951   1.480       .  S
C1948      C1949   1.401       .  A
C1949      C1950   1.394       .  A
C1949      H1957   1.084       .  S
C1950      H1958   1.082       .  S
C1951      C1952   1.344       .  D
C1951      H1959   1.087       .  S
C1952      H1960   1.086       .  S
C1953      C1954   1.344       .  D
C1953      H1961   1.085       .  S
C1954      H1962   1.079       .  S
C1963      C1971   1.485       .  S
C1963      C1964   1.402       .  A
C1963      C1968   1.408       .  A
C1964      C1965   1.398       .  A
C1964      H1973   1.083       .  S
C1965      C1966   1.408       .  A
C1965      H1974   1.082       .  S
C1966      C1969   1.485       .  S
C1966      C1967   1.402       .  A
C1967      C1968   1.398       .  A
C1967      H1975   1.083       .  S
C1968      H1976   1.082       .  S
C1969      C1970   1.343       .  D
C1969      H1977   1.087       .  S
C1970      H1978   1.084       .  S
C1971      C1972   1.345       .  D
C1971      H1979   1.087       .  S
C1972      H1980   1.085       .  S
C1981      C1989   1.496       .  S
C1981      C1982   1.404       .  A
C1981      C1986   1.411       .  A
C1982      C1983   1.399       .  A
C1982      H1991   1.083       .  S
C1983      C1984   1.408       .  A
C1983      H1992   1.081       .  S
C1984      C1987   1.494       .  S
C1984      C1985   1.404       .  A
C1985      C1986   1.403       .  A
C1985      H1993   1.083       .  S
C1986      H1994   1.080       .  S
C1987      C1988   1.346       .  D
C1987      H1995   1.086       .  S
C1988      H1996   1.084       .  S
C1989      C1990   1.349       .  D
C1989      H1997   1.087       .  S
C1990      H1998   1.084       .  S
C1999      C2007   1.495       .  S
C1999      C2000   1.407       .  A
C1999      C2004   1.408       .  A
C2000      C2001   1.402       .  A
C2000      H2009   1.083       .  S
C2001      C2002   1.407       .  A
C2001      H2010   1.081       .  S
C2002      C2005   1.494       .  S
C2002      C2003   1.405       .  A
C2003      C2004   1.401       .  A
C2003      H2011   1.083       .  S
C2004      H2012   1.080       .  S
C2005      C2006   1.351       .  D
C2005      H2013   1.086       .  S
C2006      H2014   1.084       .  S
C2007      C2008   1.352       .  D
C2007      H2015   1.087       .  S
C2008      H2016   1.083       .  S
C2017      C2025   1.498       .  S
C2017      C2018   1.407       .  A
C2017      C2022   1.408       .  A
C2018      C2019   1.405       .  A
C2018      H2027   1.083       .  S
C2019      C2020   1.409       .  A
C2019      H2028   1.081       .  S
C2020      C2023   1.498       .  S
C2020      C2021   1.406       .  A
C2021      C2022   1.402       .  A
C2021      H2029   1.083       .  S
C2022      H2030   1.081       .  S
C2023      C2024   1.350       .  D
C2023      H2031   1.087       .  S
C2024      H2032   1.083       .  S
C2025      C2026   1.351       .  D
C2025      H2033   1.087       .  S
C2026      H2034   1.083       .  S
C2035      C2043   1.490       .  S
C2035      C2036   1.403       .  A
C2035      C2040   1.408       .  A
C2036      C2037   1.398       .  A
C2036      H2045   1.084       .  S
C2037      C2038   1.409       .  A
C2037      H2046   1.080       .  S
C2038      C2041   1.493       .  S
C2038      C2039   1.405       .  A
C2039      C2040   1.402       .  A
C2039      H2047   1.084       .  S
C2040      H2048   1.081       .  S
C2041      C2042   1.347       .  D
C2041      H2049   1.086       .  S
C2042      H2050   1.082       .  S
C2043      C2044   1.346       .  D
C2043      H2051   1.086       .  S
C2044      H2052   1.083       .  S
C2053      C2061   1.489       .  S
C2053      C2054   1.403       .  A
C2053      C2058   1.408       .  A
C2054      C2055   1.400       .  A
C2054      H2063   1.083       .  S
C2055      C2056   1.410       .  A
C2055      H2064   1.080       .  S
C2056      C2059   1.489       .  S
C2056      C2057   1.403       .  A
C2057      C2058   1.396       .  A
C2057      H2065   1.084       .  S
C2058      H2066   1.081       .  S
C2059      C2060   1.345       .  D
C2059      H2067   1.087       .  S
C2060      H2068   1.084       .  S
C2061      C2062   1.345       .  D
C2061      H2069   1.087       .  S
C2062      H2070   1.085       .  S
C2071      C2079   1.490       .  S
C2071      C2072   1.411       .  A
C2071      C2076   1.402       .  A
C2072      C2073   1.399       .  A
C2072      H2081   1.079       .  S
C2073      C2074   1.406       .  A
C2073      H2082   1.081       .  S
C2074      C2077   1.485       .  S
C2074      C2075   1.403       .  A
C2075      C2076   1.396       .  A
C2075      H2083   1.083       .  S
C2076      H2084   1.083       .  S
C2077      C2078   1.348       .  D
C2077      H2085   1.087       .  S
C2078      H2086   1.084       .  S
C2079      C2080   1.344       .  D
C2079      H2087   1.087       .  S
C2080      H2088   1.083       .  S
C2089      C2097   1.486       .  S
C2089      C2090   1.403       .  A
C2089      C2094   1.407       .  A
C2090      C2091   1.397       .  A
C2090      H2099   1.083       .  S
C2091      C2092   1.407       .  A
C2091      H2100   1.081       .  S
C2092      C2095   1.485       .  S
C2092      C2093   1.404       .  A
C2093      C2094   1.398       .  A
C2093      H2101   1.083       .  S
C2094      H2102   1.081       .  S
C2095      C2096   1.346       .  D
C2095      H2103   1.087       .  S
C2096      H2104   1.085       .  S
C2097      C2098   1.345       .  D
C2097      H2105   1.087       .  S
C2098      H2106   1.085       .  S
C2107      C2115   1.485       .  S
C2107      C2954   1.402   1_545  A
C2107      C2112   1.410       .  A
C2108      C2953   1.402       .  A
C2108      C2109   1.395       .  A
C2108      H2117   1.084       .  S
C2109      C2110   1.407       .  A
C2109      H2118   1.082       .  S
C2110      C2113   1.482       .  S
C2110      C2111   1.401       .  A
C2111      C2958   1.399       .  A
C2111      H2965   1.084       .  S
C2112      C2957   1.398   1_545  A
C2112      H2120   1.080       .  S
C2113      C2114   1.343       .  D
C2113      H2121   1.087       .  S
C2114      H2122   1.085       .  S
C2115      C2116   1.344       .  D
C2115      H2123   1.087       .  S
C2116      H2124   1.084       .  S
H2119      C2957   1.084       .  S
C2125      C2133   1.484       .  S
C2126      C2127   1.396       .  A
C2126      H2135   1.084       .  S
C2127      C2128   1.406       .  A
C2127      H2136   1.081       .  S
C2128      C2131   1.485       .  S
C2128      C2129   1.404       .  A
C2129      C2130   1.399       .  A
C2129      H2137   1.083       .  S
C2131      C2132   1.346       .  D
C2131      H2139   1.086       .  S
C2132      H2140   1.083       .  S
C2133      C2134   1.348       .  D
C2133      H2141   1.087       .  S
C2134      H2142   1.084       .  S
C2143      C2151   1.483       .  S
C2143      C2144   1.401       .  A
C2143      C2148   1.408       .  A
C2144      C2145   1.399       .  A
C2144      H2153   1.084       .  S
C2145      C2146   1.411       .  A
C2145      H2154   1.081       .  S
C2146      C2149   1.488       .  S
C2146      C2147   1.401       .  A
C2147      C2148   1.396       .  A
C2147      H2155   1.083       .  S
C2148      H2156   1.082       .  S
C2149      C2150   1.343       .  D
C2149      H2157   1.087       .  S
C2150      H2158   1.084       .  S
C2151      C2152   1.342       .  D
C2151      H2159   1.087       .  S
C2152      H2160   1.085       .  S
C2161      C2169   1.492       .  S
C2161      C2162   1.404       .  A
C2161      C2166   1.409       .  A
C2162      C3009   1.400   1_545  A
C2162      H2171   1.083       .  S
C2163      C3008   1.400       .  A
C2163      C2164   1.408       .  A
C2163      H2172   1.081       .  S
C2164      C2167   1.493       .  S
C2164      C2165   1.405       .  A
C2165      C3012   1.401       .  A
C2165      H2173   1.083       .  S
C2166      C3011   1.402   1_545  A
C2166      H2174   1.081       .  S
C2167      C2168   1.349       .  D
C2167      H2175   1.086       .  S
C2168      H2176   1.084       .  S
C2169      C2170   1.348       .  D
C2169      H2177   1.087       .  S
C2170      H2178   1.084       .  S
C2179      C2187   1.493       .  S
C2179      C2184   1.407       .  A
C2180      C2181   1.401       .  A
C2180      H2189   1.083       .  S
C2181      C2182   1.407       .  A
C2181      H2190   1.080       .  S
C2182      C2185   1.493       .  S
C2182      C2183   1.407       .  A
C2183      H2191   1.084       .  S
C2184      H2192   1.080       .  S
C2185      C2186   1.352       .  D
C2185      H2193   1.087       .  S
C2186      H2194   1.083       .  S
C2187      C2188   1.352       .  D
C2187      H2195   1.087       .  S
C2188      H2196   1.083       .  S
C2197      C2205   1.490       .  S
C2197      C2198   1.404       .  A
C2197      C2202   1.407       .  A
C2198      C2199   1.401       .  A
C2198      H2207   1.084       .  S
C2199      C2200   1.409       .  A
C2199      H2208   1.081       .  S
C2200      C2203   1.492       .  S
C2200      C2201   1.405       .  A
C2201      C2202   1.400       .  A
C2201      H2209   1.084       .  S
C2202      H2210   1.081       .  S
C2203      C2204   1.348       .  D
C2203      H2211   1.085       .  S
C2204      H2212   1.083       .  S
C2205      C2206   1.347       .  D
C2205      H2213   1.086       .  S
C2206      H2214   1.084       .  S
C2215      C2223   1.484       .  S
C2215      C2216   1.401       .  A
C2215      C2220   1.408       .  A
C2216      C2217   1.399       .  A
C2216      H2225   1.083       .  S
C2217      C2218   1.410       .  A
C2217      H2226   1.081       .  S
C2218      C2221   1.485       .  S
C2218      C2219   1.401       .  A
C2219      C2220   1.394       .  A
C2219      H2227   1.084       .  S
C2220      H2228   1.082       .  S
C2221      C2222   1.344       .  D
C2221      H2229   1.087       .  S
C2222      H2230   1.084       .  S
C2223      C2224   1.342       .  D
C2223      H2231   1.086       .  S
C2224      H2232   1.085       .  S
C2233      C2241   1.487       .  S
C2233      C2234   1.402       .  A
C2233      C2238   1.407       .  A
C2234      C2235   1.401       .  A
C2234      H2243   1.083       .  S
C2235      C2236   1.411       .  A
C2235      H2244   1.080       .  S
C2236      C2239   1.490       .  S
C2236      C2237   1.403       .  A
C2237      C2238   1.396       .  A
C2237      H2245   1.083       .  S
C2238      H2246   1.082       .  S
C2239      C2240   1.345       .  D
C2239      H3093   1.085       .  S
C2240      H2248   1.082       .  S
C2241      C2242   1.344       .  D
C2241      H2249   1.087       .  S
C2242      H2250   1.086       .  S
H2247      C3085   1.086       .  S
C2251      C2259   1.491       .  S
C2251      C2252   1.403       .  A
C2251      C2256   1.409       .  A
C2252      C2253   1.402       .  A
C2252      H2261   1.083       .  S
C2253      C2254   1.410       .  A
C2253      H2262   1.081       .  S
C2254      C2257   1.492       .  S
C2254      C2255   1.402       .  A
C2255      C2256   1.398       .  A
C2255      H2263   1.083       .  S
C2256      H2264   1.081       .  S
C2257      C2258   1.346       .  D
C2257      H2265   1.087       .  S
C2258      H2266   1.085       .  S
C2259      C2260   1.345       .  D
C2259      H2267   1.087       .  S
C2260      H2268   1.084       .  S
C2269      C2277   1.480       .  S
C2269      C2270   1.400       .  A
C2269      C2274   1.408       .  A
C2270      C2271   1.399       .  A
C2270      H2279   1.083       .  S
C2271      C2272   1.411       .  A
C2271      H2280   1.082       .  S
C2272      C2275   1.483       .  S
C2272      C2273   1.399       .  A
C2273      C2274   1.393       .  A
C2273      H2281   1.084       .  S
C2274      H2282   1.082       .  S
C2275      C2276   1.340       .  D
C2275      H2283   1.087       .  S
C2276      H2284   1.085       .  S
C2277      C2278   1.339       .  D
C2277      H2285   1.087       .  S
C2278      H2286   1.085       .  S
C2287      C2295   1.487       .  S
C2287      C2288   1.409       .  A
C2287      C2292   1.400       .  A
C2288      C2289   1.398       .  A
C2288      H2297   1.082       .  S
C2289      C2290   1.407       .  A
C2289      H2298   1.080       .  S
C2290      C2293   1.487       .  S
C2290      C2291   1.406       .  A
C2291      C2292   1.398       .  A
C2291      H2299   1.083       .  S
C2292      H2300   1.083       .  S
C2293      C2294   1.349       .  D
C2293      H2301   1.086       .  S
C2294      H2302   1.082       .  S
C2295      C2296   1.341       .  D
C2295      H2303   1.087       .  S
C2296      H2304   1.086       .  S
C2305      C2313   1.483       .  S
C2305      C2306   1.400       .  A
C2305      C2310   1.409       .  A
C2306      C2307   1.395       .  A
C2306      H2315   1.084       .  S
C2307      C2308   1.408       .  A
C2307      H2316   1.082       .  S
C2308      C2311   1.482       .  S
C2308      C2309   1.401       .  A
C2309      C2310   1.399       .  A
C2309      H2317   1.083       .  S
C2310      H2318   1.082       .  S
C2311      C2312   1.341       .  D
C2311      H2319   1.087       .  S
C2312      H2320   1.085       .  S
C2313      C2314   1.343       .  D
C2313      H2321   1.087       .  S
C2314      H2322   1.086       .  S
C2323      C2331   1.492       .  S
C2323      C2324   1.405       .  A
C2323      C2328   1.408       .  A
C2324      C2325   1.400       .  A
C2324      H2333   1.083       .  S
C2325      C2326   1.407       .  A
C2325      H2334   1.080       .  S
C2326      C2329   1.492       .  S
C2326      C2327   1.406       .  A
C2327      C2328   1.401       .  A
C2327      H2335   1.083       .  S
C2328      H2336   1.081       .  S
C2329      C2330   1.350       .  D
C2329      H2337   1.087       .  S
C2330      H2338   1.083       .  S
C2331      C2332   1.349       .  D
C2331      H2339   1.086       .  S
C2332      H2340   1.083       .  S
C2341      C2349   1.494       .  S
C2341      C2342   1.407       .  A
C2341      C2346   1.408       .  A
C2342      C2343   1.400       .  A
C2342      H2351   1.084       .  S
C2343      C2344   1.406       .  A
C2343      H2352   1.081       .  S
C2344      C2347   1.492       .  S
C2344      C2345   1.406       .  A
C2345      C2346   1.402       .  A
C2345      H2353   1.084       .  S
C2346      H2354   1.080       .  S
C2347      C2348   1.350       .  D
C2347      H2355   1.086       .  S
C2348      H2356   1.083       .  S
C2349      C2350   1.351       .  D
C2349      H2357   1.085       .  S
C2350      H2358   1.082       .  S
C2359      C2367   1.495       .  S
C2359      C2360   1.404       .  A
C2359      C2364   1.409       .  A
C2360      C2361   1.401       .  A
C2360      H2369   1.083       .  S
C2361      C2362   1.410       .  A
C2361      H2370   1.080       .  S
C2362      C2365   1.498       .  S
C2362      C2363   1.406       .  A
C2363      C2364   1.403       .  A
C2363      H2371   1.083       .  S
C2364      H2372   1.081       .  S
C2365      C2366   1.350       .  D
C2365      H2373   1.086       .  S
C2366      H2374   1.083       .  S
C2367      C2368   1.349       .  D
C2367      H2375   1.085       .  S
C2368      H2376   1.084       .  S
C2377      C2385   1.483       .  S
C2377      C2378   1.402       .  A
C2377      C2382   1.407       .  A
C2378      C2379   1.395       .  A
C2378      H2387   1.084       .  S
C2379      C2380   1.408       .  A
C2379      H2388   1.082       .  S
C2380      C2383   1.486       .  S
C2380      C2381   1.404       .  A
C2381      C2382   1.400       .  A
C2381      H2389   1.083       .  S
C2382      H2390   1.082       .  S
C2383      C2384   1.345       .  D
C2383      H2391   1.084       .  S
C2384      H2392   1.077       .  S
C2385      C2386   1.346       .  D
C2385      H2393   1.087       .  S
C2386      H2394   1.085       .  S
C2395      C2403   1.485       .  S
C2395      C2396   1.402       .  A
C2395      C2400   1.408       .  A
C2396      C2397   1.398       .  A
C2396      H2405   1.083       .  S
C2397      C2398   1.408       .  A
C2397      H2406   1.082       .  S
C2398      C2401   1.488       .  S
C2398      C2399   1.403       .  A
C2399      C2400   1.400       .  A
C2399      H2407   1.083       .  S
C2400      H2408   1.082       .  S
C2401      C2402   1.345       .  D
C2401      H2409   1.087       .  S
C2402      H2410   1.086       .  S
C2403      C2404   1.343       .  D
C2403      H2411   1.087       .  S
C2404      H2412   1.085       .  S
C2413      C2421   1.490       .  S
C2413      C2414   1.403       .  A
C2413      C2418   1.408       .  A
C2414      C2415   1.401       .  A
C2414      H2423   1.083       .  S
C2415      C2416   1.410       .  A
C2415      H2424   1.080       .  S
C2416      C2419   1.494       .  S
C2416      C2417   1.404       .  A
C2417      C2418   1.399       .  A
C2417      H2425   1.083       .  S
C2418      H2426   1.081       .  S
C2419      C2420   1.348       .  D
C2419      H2427   1.087       .  S
C2420      H2428   1.084       .  S
C2421      C2422   1.345       .  D
C2421      H2429   1.087       .  S
C2422      H2430   1.084       .  S
C2431      C2439   1.482       .  S
C2431      C2432   1.404       .  A
C2431      C2436   1.405       .  A
C2432      C2433   1.395       .  A
C2432      H2441   1.084       .  S
C2433      C2434   1.405       .  A
C2433      H2442   1.080       .  S
C2434      C2437   1.483       .  S
C2434      C2435   1.405       .  A
C2435      C2436   1.396       .  A
C2435      H2443   1.084       .  S
C2436      H2444   1.080       .  S
C2437      C2438   1.349       .  D
C2437      H2445   1.087       .  S
C2438      H2446   1.083       .  S
C2439      C2440   1.349       .  D
C2439      H2447   1.087       .  S
C2440      H2448   1.084       .  S
C2449      C2457   1.481       .  S
C2449      C2450   1.404       .  A
C2449      C2454   1.406       .  A
C2450      C2451   1.394       .  A
C2450      H2459   1.084       .  S
C2451      C2452   1.405       .  A
C2451      H2460   1.081       .  S
C2452      C2455   1.482       .  S
C2452      C2453   1.404       .  A
C2453      C2454   1.398       .  A
C2453      H2461   1.083       .  S
C2454      H2462   1.081       .  S
C2455      C2456   1.347       .  D
C2455      H2463   1.087       .  S
C2456      H2464   1.084       .  S
C2457      C2458   1.349       .  D
C2457      H2465   1.087       .  S
C2458      H2466   1.084       .  S
C2467      C2475   1.486       .  S
C2467      C2468   1.399       .  A
C2467      C2472   1.410       .  A
C2468      C2469   1.397       .  A
C2468      H2477   1.083       .  S
C2469      C2470   1.412       .  A
C2469      H2478   1.081       .  S
C2470      C2473   1.491       .  S
C2470      C2471   1.401       .  A
C2471      C2472   1.400       .  A
C2471      H2479   1.083       .  S
C2472      H2480   1.082       .  S
C2473      C2474   1.341       .  D
C2473      H2481   1.087       .  S
C2474      H2482   1.085       .  S
C2475      C2476   1.340       .  D
C2475      H2483   1.087       .  S
C2476      H2484   1.086       .  S
C2485      C2493   1.493       .  S
C2485      C2486   1.404       .  A
C2485      C2490   1.409       .  A
C2486      C3333   1.401       .  A
C2486      H2495   1.083       .  S
C2487      C3332   1.401       .  A
C2487      C2488   1.409       .  A
C2487      H2496   1.081       .  S
C2488      C2491   1.491       .  S
C2488      C3335   1.403       .  A
C2489      C3334   1.403   1_545  A
C2489      C2490   1.400       .  A
C2489      H2497   1.083   1_545  S
C2490      H2498   1.081       .  S
C2491      C2492   1.347       .  D
C2491      H2499   1.087       .  S
C2492      H2500   1.085       .  S
C2493      C2494   1.345       .  D
C2493      H2501   1.086       .  S
C2494      H2502   1.083       .  S
C2503      C2511   1.487       .  S
C2503      C2504   1.402       .  A
C2504      H2513   1.083       .  S
C2505      C2506   1.411       .  A
C2505      H2514   1.081       .  S
C2506      C2509   1.488       .  S
C2506      C2507   1.400       .  A
C2507      C2508   1.395       .  A
C2507      H2515   1.084       .  S
C2509      C2510   1.342       .  D
C2509      H2517   1.086       .  S
C2510      H2518   1.084       .  S
C2511      C2512   1.343       .  D
C2511      H2519   1.087       .  S
C2512      H2520   1.086       .  S
C2521      C2529   1.487       .  S
C2521      C2522   1.400       .  A
C2521      C2526   1.411       .  A
C2522      C2523   1.397       .  A
C2522      H2531   1.083       .  S
C2523      C2524   1.410       .  A
C2523      H2532   1.082       .  S
C2524      C2527   1.485       .  S
C2524      C2525   1.400       .  A
C2525      C2526   1.398       .  A
C2525      H2533   1.083       .  S
C2526      H2534   1.082       .  S
C2527      C2528   1.341       .  D
C2527      H2535   1.086       .  S
C2528      H2536   1.085       .  S
C2529      C2530   1.341       .  D
C2529      H2537   1.087       .  S
C2530      H2538   1.085       .  S
O2539      C2555   1.267       .  A
O2539     Zn2545   1.966       .  S
C2540      O2556   1.269       .  A
C2540      O2553   1.271       .  A
C2540      C3302   1.471       .  S
O2541      C2554   1.275       .  A
O2541     Cd2548   2.093       .  S
O2542      C2560   1.272       .  A
O2542     Cd2551   2.047       .  S
O2543      C2557   1.280       .  A
O2543     Cd2547   2.105       .  S
O2544      C2555   1.280       .  A
O2544     Cd2547   2.117       .  S
Zn2545     O2556   1.980       .  S
Zn2545     O2558   1.968       .  S
Zn2545     O2550   1.911       .  S
O2546      C2557   1.271       .  A
O2546     Cd2551   2.044       .  S
Cd2547     O2549   2.077       .  S
Cd2547     O2550   2.012       .  S
Cd2548     O2552   2.089       .  S
Cd2548     O2561   2.094       .  S
Cd2548     O2550   2.016       .  S
O2549      C2559   1.277       .  A
O2550     Cd2551   1.988       .  S
Cd2551     O2553   2.069       .  S
O2552      C2559   1.280       .  A
C2554      O2558   1.270       .  A
C2554      C3286   1.478       .  S
C2555      C3320   1.474       .  S
C2557      C3376   1.474       .  S
C2559      C3338   1.481       .  S
C2560      O2561   1.279       .  A
C2560      C3358   1.472       .  S
O2562      C2578   1.269       .  A
C2563      O2579   1.268       .  A
C2563      O2576   1.278       .  A
C2563      C3322   1.475       .  S
O2564      C2577   1.274       .  A
O2564     Cd2571   2.086       .  S
O2565      C2583   1.277       .  A
O2565     Cd2574   2.086       .  S
O2566      C2580   1.274       .  A
O2567      C2578   1.273       .  A
O2567     Cd2570   2.087       .  S
Zn2568     O2579   1.978   1_445  S
Zn2568     O2573   1.917   1_445  S
O2569      C2580   1.280       .  A
Cd2570     O2572   2.079       .  S
O2572      C2582   1.277       .  A
O2573     Cd2574   2.018       .  S
Cd2574     O2576   2.107       .  S
O2575      C2582   1.274       .  A
C2577      O2581   1.269       .  A
C2577      C3284   1.475       .  S
C2578      C3304   1.476       .  S
C2580      C3248   1.476       .  S
C2582      C3266   1.476       .  S
C2583      O2584   1.276       .  A
C2583      C3232   1.480       .  S
C2585      H2586   1.111       .  S
C2585      C2591   1.547       .  S
C2585      C2590   1.550       .  S
C2585      C2589   1.549       .  S
C2587      H2588   1.111       .  S
C2587      C2593   1.520       .  S
C2587      C2592   1.531       .  S
C2587      C2594   1.525       .  S
C2589      C2592   1.378       .  D
C2589      C3178   1.492       .  S
C2590      C2593   1.376       .  D
C2590      C3196   1.496       .  S
C2591      C2594   1.378       .  D
C2591      C3214   1.496       .  S
C2592      C3140   1.490       .  S
C2593      C3124   1.473       .  S
C2594      C3158   1.473       .  S
C2595      H2596   1.112       .  S
C2597      H2598   1.110       .  S
C2599      C2602   1.380       .  D
C2599      C3212   1.496       .  S
C2600      C2603   1.378       .  D
C2600      C3194   1.494       .  S
C2601      C2604   1.377       .  D
C2601      C3176   1.494       .  S
C2602      C3106   1.484       .  S
C2603      C3070   1.481       .  S
C2604      C3086   1.489       .  S
C2605      H2606   1.111       .  S
C2605      C2611   1.549       .  S
C2605      C2610   1.544       .  S
C2605      C2609   1.543       .  S
C2607      H2608   1.110       .  S
C2607      C2613   1.528       .  S
C2607      C2612   1.529       .  S
C2607      C2614   1.527       .  S
C2609      C2612   1.378       .  D
C2609      C3050   1.491       .  S
C2610      C2613   1.378       .  D
C2610      C3014   1.492       .  S
C2611      C2614   1.376       .  D
C2611      C3032   1.493       .  S
C2612      C2998   1.479       .  S
C2613      C2960   1.476       .  S
C2614      C2978   1.487       .  S
C2615      H2616   1.112       .  S
C2615      C2621   1.537       .  S
C2615      C2620   1.545       .  S
C2615      C2619   1.543       .  S
C2617      H2618   1.109       .  S
C2617      C2623   1.533       .  S
C2617      C2622   1.533       .  S
C2617      C2624   1.541       .  S
C2619      C2622   1.381       .  D
C2619      C3052   1.489       .  S
C2620      C2623   1.376       .  D
C2620      C3034   1.495       .  S
C2621      C2624   1.377       .  D
C2621      C3016   1.492       .  S
C2622      C3374   1.483       .  S
C2623      C3356   1.485       .  S
C2624      C3340   1.489       .  S
O2625      C2641   1.273       .  A
O2625     Zn2631   1.998       .  S
C2626      O2642   1.271       .  A
C2626      O2639   1.275       .  A
C2626      C2962   1.475       .  S
O2627      C2640   1.277       .  A
O2627     Cd2634   2.085       .  S
O2628      C2646   1.274       .  A
O2628     Cd2637   2.067       .  S
O2629      C2643   1.275       .  A
O2629     Cd2633   2.069       .  S
O2630      C2641   1.274       .  A
O2630     Cd2633   2.079       .  S
Zn2631     O2642   2.008       .  S
Zn2631     O2644   2.004       .  S
Zn2631     O2636   1.933       .  S
O2632      C2643   1.273       .  A
O2632     Cd2637   2.069       .  S
Cd2633     O2635   2.060       .  S
Cd2633     O2636   2.000       .  S
Cd2634     O2638   2.078       .  S
Cd2634     O2647   2.086       .  S
Cd2634     O2636   2.007       .  S
O2635      C2645   1.274       .  A
O2636     Cd2637   1.999       .  S
Cd2637     O2639   2.073       .  S
O2638      C2645   1.274       .  A
C2640      O2644   1.272       .  A
C2640      C2996   1.476       .  S
C2641      C2980   1.477       .  S
C2643      C2906   1.476       .  S
C2645      C2924   1.473       .  S
C2646      O2647   1.278       .  A
C2646      C2944   1.477       .  S
O2648      C2664   1.269       .  A
O2648     Zn2654   1.990       .  S
C2649      O2665   1.269       .  A
C2649      O2662   1.276       .  A
C2649      C3122   1.469       .  S
O2650      C2663   1.278       .  A
O2650     Cd2657   2.097       .  S
O2651      C2669   1.272       .  A
O2651     Cd2660   2.059       .  S
O2652      C2666   1.272       .  A
O2653      C2664   1.274       .  A
O2653     Cd2656   2.070       .  S
Zn2654     O2659   1.924       .  S
O2655      C2666   1.277       .  A
Cd2656     O2658   2.070       .  S
Cd2656     O2659   1.993       .  S
O2658      C2668   1.274       .  A
Cd2660     O2662   2.078       .  S
O2661      C2668   1.277       .  A
C2663      O2667   1.270       .  A
C2663      C3142   1.473       .  S
C2664      C3160   1.469       .  S
C2666      C2908   1.473       .  S
C2668      C2942   1.478       .  S
C2669      O2670   1.277       .  A
C2669      C2926   1.468       .  S
C2671      H2672   1.112       .  S
C2671      C2677   1.541       .  S
C2671      C2676   1.544       .  S
C2671      C2675   1.542       .  S
C2673      H2674   1.110       .  S
C2673      C2679   1.534       .  S
C2673      C2678   1.537       .  S
C2673      C2680   1.533       .  S
C2675      C2678   1.376       .  D
C2675      C2852   1.495       .  S
C2676      C2679   1.377       .  D
C2676      C2872   1.490       .  S
C2677      C2680   1.380       .  D
C2677      C2890   1.490       .  S
C2678      C3250   1.484       .  S
C2679      C3230   1.488       .  S
C2680      C3268   1.482       .  S
C2681      H2682   1.109       .  S
C2681      C2686   1.535   1_445  S
C2683      H2684   1.112       .  S
C2683      C2689   1.545   1_445  S
C2685      C2688   1.375       .  D
C2685      C2816   1.483       .  S
C2686      C2689   1.378       .  D
C2686      C2800   1.488       .  S
C2687      C2690   1.381       .  D
C2687      C2834   1.489       .  S
C2688      C2854   1.496       .  S
C2689      C2870   1.492       .  S
C2690      C2888   1.489       .  S
O2691      C2707   1.276       .  A
O2691     Zn2697   2.035       .  S
C2692      O2708   1.276       .  A
C2692      O2705   1.277       .  A
C2692      C2782   1.482       .  S
O2693      C2706   1.275       .  A
O2693     Cd2700   2.075       .  S
O2694      C2712   1.280       .  A
O2694     Cd2703   2.100       .  S
O2695      C2709   1.271       .  A
O2695     Cd2699   2.047       .  S
O2696      C2707   1.271       .  A
O2696     Cd2699   2.056       .  S
Zn2697     O2708   2.019       .  S
Zn2697     O2710   2.019       .  S
Zn2697     O2702   1.951       .  S
O2698      C2709   1.279       .  A
O2698     Cd2703   2.100       .  S
Cd2699     O2701   2.063       .  S
Cd2699     O2702   1.990       .  S
Cd2700     O2704   2.081       .  S
Cd2700     O2713   2.062       .  S
Cd2700     O2702   2.001       .  S
O2701      C2711   1.272       .  A
O2702     Cd2703   2.018       .  S
Cd2703     O2705   2.090       .  S
O2704      C2711   1.276       .  A
C2706      O2710   1.275       .  A
C2706      C2746   1.479       .  S
C2707      C2762   1.475       .  S
C2709      C3088   1.474       .  S
C2711      C3068   1.478       .  S
C2712      O2713   1.273       .  A
C2712      C3104   1.480       .  S
O2714      C2730   1.275       .  A
O2714     Zn2720   2.034       .  S
C2715      O2731   1.276       .  A
C2715      O2728   1.275       .  A
C2715      C2764   1.479       .  S
O2716      C2729   1.274       .  A
O2716     Cd2723   2.070       .  S
O2717      C2735   1.277       .  A
O2717     Cd2726   2.088       .  S
O2718      C2732   1.276       .  A
O2718     Cd2722   2.074       .  S
O2719      C2730   1.274       .  A
O2719     Cd2722   2.075       .  S
Zn2720     O2731   2.016       .  S
Zn2720     O2733   2.023       .  S
Zn2720     O2725   1.951       .  S
O2721      C2732   1.274       .  A
O2721     Cd2726   2.069       .  S
Cd2722     O2724   2.073       .  S
Cd2722     O2725   2.005       .  S
Cd2723     O2727   2.065       .  S
Cd2723     O2736   2.077       .  S
Cd2723     O2725   2.000       .  S
O2724      C2734   1.274       .  A
O2725     Cd2726   2.007       .  S
Cd2726     O2728   2.076       .  S
O2727      C2734   1.275       .  A
C2729      O2733   1.276       .  A
C2729      C2744   1.478       .  S
C2730      C2780   1.482       .  S
C2732      C2818   1.476       .  S
C2734      C2798   1.475       .  S
C2735      O2736   1.274       .  A
C2735      C2836   1.484       .  S
C2737      C2745   1.490       .  S
C2737      C2738   1.404       .  A
C2737      C2742   1.408       .  A
C2738      C2739   1.398       .  A
C2738      H2747   1.084       .  S
C2739      C2740   1.409       .  A
C2739      H2748   1.079   1_556  S
C2740      C2743   1.492   1_556  S
C2740      C2741   1.405       .  A
C2741      C2742   1.399       .  A
C2741      H2749   1.083       .  S
C2742      H2750   1.080       .  S
C2743      C2744   1.348       .  D
C2743      H2751   1.087       .  S
C2744      H2752   1.082       .  S
C2745      C2746   1.348       .  D
C2745      H2753   1.087       .  S
C2746      H2754   1.083       .  S
C2755      C2763   1.488   1_556  S
C2755      C2756   1.403       .  A
C2755      C2760   1.409   1_556  A
C2756      H2765   1.084       .  S
C2757      C2758   1.408   1_545  A
C2757      H2766   1.081       .  S
C2758      C2761   1.488       .  S
C2758      C2759   1.404       .  A
C2759      H2767   1.083       .  S
C2760      H2768   1.080       .  S
C2761      C2762   1.345       .  D
C2761      H2769   1.087       .  S
C2762      H2770   1.085       .  S
C2763      C2764   1.347       .  D
C2763      H2771   1.087       .  S
C2764      H2772   1.084       .  S
C2773      C2781   1.491       .  S
C2773      C2778   1.407       .  A
C2774      C2775   1.398       .  A
C2774      H2783   1.084       .  S
C2775      C2776   1.409   1_455  A
C2775      H2784   1.079   1_556  S
C2776      C2779   1.497   1_556  S
C2776      C2777   1.406       .  A
C2777      H2785   1.083       .  S
C2778      H2786   1.081       .  S
C2779      C2780   1.350       .  D
C2779      H2787   1.087   1_554  S
C2780      H2788   1.082       .  S
C2781      C2782   1.349       .  D
C2781      H2789   1.087       .  S
C2782      H2790   1.084       .  S
C2791      C2799   1.482       .  S
C2791      C2792   1.402       .  A
C2791      C2796   1.407       .  A
C2792      C2793   1.400       .  A
C2792      H2801   1.083   1_655  S
C2793      C2794   1.408       .  A
C2793      H2802   1.082       .  S
C2794      C2797   1.481       .  S
C2794      C2795   1.401       .  A
C2795      C2796   1.394       .  A
C2795      H2803   1.084       .  S
C2796      H2804   1.083       .  S
C2797      C2798   1.345       .  D
C2797      H2805   1.087       .  S
C2798      H2806   1.086       .  S
C2799      C2800   1.344       .  D
C2799      H2807   1.085       .  S
C2800      H2808   1.079       .  S
C2809      C2817   1.485       .  S
C2809      C2810   1.403       .  A
C2809      C2814   1.408       .  A
C2810      C2811   1.398       .  A
C2810      H2819   1.083       .  S
C2811      C2812   1.407       .  A
C2811      H2820   1.082       .  S
C2812      C2815   1.483       .  S
C2812      C2813   1.402       .  A
C2813      C2814   1.398       .  A
C2813      H2821   1.083       .  S
C2814      H2822   1.081       .  S
C2815      C2816   1.342       .  D
C2815      H2823   1.087       .  S
C2816      H2824   1.085       .  S
C2817      C2818   1.345       .  D
C2817      H2825   1.087       .  S
C2818      H2826   1.085       .  S
C2827      C2835   1.495       .  S
C2827      C2828   1.404       .  A
C2827      C2832   1.410       .  A
C2828      C2829   1.399       .  A
C2828      H2837   1.083       .  S
C2829      C2830   1.409       .  A
C2829      H2838   1.081       .  S
C2830      C2833   1.494       .  S
C2830      C2831   1.404       .  A
C2831      C2832   1.403       .  A
C2831      H2839   1.083       .  S
C2832      H2840   1.081       .  S
C2833      C2834   1.347       .  D
C2833      H2841   1.086       .  S
C2834      H2842   1.084       .  S
C2835      C2836   1.348       .  D
C2835      H2843   1.087       .  S
C2836      H2844   1.084       .  S
C2845      C2853   1.496       .  S
C2845      C2846   1.406       .  A
C2845      C2850   1.408       .  A
C2846      C2847   1.401       .  A
C2846      H2855   1.083       .  S
C2847      C2848   1.407       .  A
C2847      H2856   1.080       .  S
C2848      C2851   1.496       .  S
C2848      C2849   1.407       .  A
C2849      C2850   1.402       .  A
C2849      H2857   1.083       .  S
C2850      H2858   1.080       .  S
C2851      C2852   1.353       .  D
C2851      H2859   1.086       .  S
C2852      H2860   1.082       .  S
C2853      C2854   1.352       .  D
C2853      H2861   1.086       .  S
C2854      H2862   1.082       .  S
C2863      C2871   1.495       .  S
C2863      C2864   1.405       .  A
C2863      C2868   1.409       .  A
C2864      C2865   1.401       .  A
C2864      H2873   1.083       .  S
C2865      C2866   1.408       .  A
C2865      H2874   1.080       .  S
C2866      C2869   1.496       .  S
C2866      C2867   1.406       .  A
C2867      C2868   1.402       .  A
C2867      H2875   1.083       .  S
C2868      H2876   1.080       .  S
C2869      C2870   1.350       .  D
C2869      H2877   1.087       .  S
C2870      H2878   1.083       .  S
C2871      C2872   1.348       .  D
C2871      H2879   1.087       .  S
C2872      H2880   1.083       .  S
C2881      C2889   1.494       .  S
C2881      C2882   1.405       .  A
C2881      C2886   1.409       .  A
C2882      C2883   1.401       .  A
C2882      H2891   1.083       .  S
C2883      C2884   1.409       .  A
C2883      H2892   1.081       .  S
C2884      C2887   1.492       .  S
C2884      C2885   1.403       .  A
C2885      C2886   1.399       .  A
C2885      H2893   1.083       .  S
C2886      H2894   1.080       .  S
C2887      C2888   1.346       .  D
C2887      H2895   1.086       .  S
C2888      H2896   1.084       .  S
C2889      C2890   1.348       .  D
C2889      H2897   1.086       .  S
C2890      H2898   1.083       .  S
C2899      C2907   1.487       .  S
C2899      C2900   1.403       .  A
C2899      C2904   1.408       .  A
C2900      C2901   1.399       .  A
C2900      H2909   1.083       .  S
C2901      C2902   1.408       .  A
C2901      H2910   1.081       .  S
C2902      C2905   1.485       .  S
C2902      C2903   1.402       .  A
C2903      C2904   1.396       .  A
C2903      H2911   1.084       .  S
C2904      H2912   1.082       .  S
C2905      C2906   1.345       .  D
C2905      H2913   1.087       .  S
C2906      H2914   1.085       .  S
C2907      C2908   1.344       .  D
C2907      H2915   1.087       .  S
C2908      H2916   1.085       .  S
C2917      C2925   1.478       .  S
C2917      C2918   1.403       .  A
C2917      C2922   1.405       .  A
C2918      C2919   1.399       .  A
C2918      H2927   1.083       .  S
C2919      C2920   1.405       .  A
C2919      H2928   1.083       .  S
C2920      C2923   1.475       .  S
C2920      C2921   1.401       .  A
C2921      C2922   1.396       .  A
C2921      H2929   1.083       .  S
C2922      H2930   1.083       .  S
C2923      C2924   1.343       .  D
C2923      H2931   1.087       .  S
C2924      H2932   1.087       .  S
C2925      C2926   1.341       .  D
C2925      H2933   1.087       .  S
C2926      H2934   1.087       .  S
C2935      C2943   1.488       .  S
C2935      C2936   1.404       .  A
C2935      C2940   1.407       .  A
C2936      C2937   1.399       .  A
C2936      H2945   1.083       .  S
C2937      C2938   1.407       .  A
C2937      H2946   1.081       .  S
C2938      C2941   1.488       .  S
C2938      C2939   1.404       .  A
C2939      C2940   1.399       .  A
C2939      H2947   1.083       .  S
C2940      H2948   1.082       .  S
C2941      C2942   1.347       .  D
C2941      H2949   1.087       .  S
C2942      H2950   1.085       .  S
C2943      C2944   1.346       .  D
C2943      H2951   1.087       .  S
C2944      H2952   1.085       .  S
C2953      C2961   1.486       .  S
C2953      C2958   1.410       .  A
C2954      C2955   1.395       .  A
C2954      H2963   1.084       .  S
C2955      C2956   1.407       .  A
C2955      H2964   1.082       .  S
C2956      C2959   1.481       .  S
C2956      C2957   1.401       .  A
C2958      H2966   1.081       .  S
C2959      C2960   1.342       .  D
C2959      H2967   1.087       .  S
C2960      H2968   1.085       .  S
C2961      C2962   1.344       .  D
C2961      H2969   1.087       .  S
C2962      H2970   1.084       .  S
C2971      C2979   1.485       .  S
C2972      C2973   1.397       .  A
C2972      H2981   1.083       .  S
C2973      C2974   1.405       .  A
C2973      H2982   1.082       .  S
C2974      C2977   1.481       .  S
C2974      C2975   1.402       .  A
C2975      C2976   1.398       .  A
C2975      H2983   1.084       .  S
C2977      C2978   1.345       .  D
C2977      H2985   1.085       .  S
C2978      H2986   1.084       .  S
C2979      C2980   1.348       .  D
C2979      H2987   1.087       .  S
C2980      H2988   1.084       .  S
C2989      C2997   1.485       .  S
C2989      C2990   1.402       .  A
C2989      C2994   1.408       .  A
C2990      C2991   1.400       .  A
C2990      H2999   1.084       .  S
C2991      C2992   1.411       .  A
C2991      H3000   1.081       .  S
C2992      C2995   1.488       .  S
C2992      C2993   1.402       .  A
C2993      C2994   1.396       .  A
C2993      H3001   1.083       .  S
C2994      H3002   1.082       .  S
C2995      C2996   1.344       .  D
C2995      H3003   1.087       .  S
C2996      H3004   1.084       .  S
C2997      C2998   1.343       .  D
C2997      H3005   1.087       .  S
C2998      H3006   1.084       .  S
C3007      C3015   1.492       .  S
C3007      C3008   1.405       .  A
C3007      C3012   1.408       .  A
C3008      H3017   1.083       .  S
C3009      C3010   1.408       .  A
C3009      H3018   1.081       .  S
C3010      C3013   1.493       .  S
C3010      C3011   1.405       .  A
C3011      H3019   1.083       .  S
C3012      H3020   1.081       .  S
C3013      C3014   1.349       .  D
C3013      H3021   1.086       .  S
C3014      H3022   1.084       .  S
C3015      C3016   1.349       .  D
C3015      H3023   1.087       .  S
C3016      H3024   1.084       .  S
C3025      C3033   1.492       .  S
C3025      C3030   1.407       .  A
C3026      C3027   1.401       .  A
C3026      H3035   1.083       .  S
C3027      C3028   1.407       .  A
C3027      H3036   1.080       .  S
C3028      C3031   1.493       .  S
C3028      C3029   1.407       .  A
C3029      H3037   1.084       .  S
C3030      H3038   1.081       .  S
C3031      C3032   1.351       .  D
C3031      H3039   1.087       .  S
C3032      H3040   1.083       .  S
C3033      C3034   1.352       .  D
C3033      H3041   1.087       .  S
C3034      H3042   1.084       .  S
C3043      C3051   1.490       .  S
C3043      C3044   1.404       .  A
C3043      C3048   1.407       .  A
C3044      C3045   1.400       .  A
C3044      H3053   1.084       .  S
C3045      C3046   1.408       .  A
C3045      H3054   1.081       .  S
C3046      C3049   1.491       .  S
C3046      C3047   1.405       .  A
C3047      C3048   1.400       .  A
C3047      H3055   1.084       .  S
C3048      H3056   1.082       .  S
C3049      C3050   1.348       .  D
C3049      H3057   1.085       .  S
C3050      H3058   1.083       .  S
C3051      C3052   1.346       .  D
C3051      H3059   1.086       .  S
C3052      H3060   1.084       .  S
C3061      C3069   1.487       .  S
C3061      C3062   1.401       .  A
C3061      C3066   1.408       .  A
C3062      C3063   1.400       .  A
C3062      H3071   1.083       .  S
C3063      C3064   1.411       .  A
C3063      H3072   1.080       .  S
C3064      C3067   1.491       .  S
C3064      C3065   1.403       .  A
C3065      C3066   1.397       .  A
C3065      H3073   1.083       .  S
C3066      H3074   1.082       .  S
C3067      C3068   1.346       .  D
C3067      H3075   1.087       .  S
C3068      H3076   1.083       .  S
C3069      C3070   1.342       .  D
C3069      H3077   1.087       .  S
C3070      H3078   1.085       .  S
C3079      C3087   1.488       .  S
C3079      C3080   1.402       .  A
C3079      C3084   1.408       .  A
C3080      C3081   1.401       .  A
C3080      H3089   1.083       .  S
C3081      C3082   1.411       .  A
C3081      H3090   1.080       .  S
C3082      C3085   1.489       .  S
C3082      C3083   1.403       .  A
C3083      C3084   1.396       .  A
C3083      H3091   1.084       .  S
C3084      H3092   1.082       .  S
C3085      C3086   1.345       .  D
C3086      H3094   1.082       .  S
C3087      C3088   1.344       .  D
C3087      H3095   1.087       .  S
C3088      H3096   1.086       .  S
C3097      C3105   1.489       .  S
C3097      C3098   1.402       .  A
C3097      C3102   1.408       .  A
C3098      C3099   1.401       .  A
C3098      H3107   1.083       .  S
C3099      C3100   1.411       .  A
C3099      H3108   1.080       .  S
C3100      C3103   1.493       .  S
C3100      C3101   1.403       .  A
C3101      C3102   1.398       .  A
C3101      H3109   1.083       .  S
C3102      H3110   1.082       .  S
C3103      C3104   1.346       .  D
C3103      H3111   1.087       .  S
C3104      H3112   1.084       .  S
C3105      C3106   1.344       .  D
C3105      H3113   1.087       .  S
C3106      H3114   1.085       .  S
C3115      C3123   1.478       .  S
C3115      C3116   1.399       .  A
C3115      C3120   1.407       .  A
C3116      C3117   1.398       .  A
C3116      H3125   1.084       .  S
C3117      C3118   1.411       .  A
C3117      H3126   1.081       .  S
C3118      C3121   1.483       .  S
C3118      C3119   1.400       .  A
C3119      C3120   1.394       .  A
C3119      H3127   1.084       .  S
C3120      H3128   1.083       .  S
C3121      C3122   1.341       .  D
C3121      H3129   1.087       .  S
C3122      H3130   1.084       .  S
C3123      C3124   1.340       .  D
C3123      H3131   1.087       .  S
C3124      H3132   1.086       .  S
C3133      C3141   1.487       .  S
C3133      C3134   1.408       .  A
C3133      C3138   1.400       .  A
C3134      C3135   1.399       .  A
C3134      H3143   1.082       .  S
C3135      C3136   1.408       .  A
C3135      H3144   1.080       .  S
C3136      C3139   1.490       .  S
C3136      C3137   1.406       .  A
C3137      C3138   1.398       .  A
C3137      H3145   1.083       .  S
C3138      H3146   1.083       .  S
C3139      C3140   1.349       .  D
C3139      H3147   1.086       .  S
C3140      H3148   1.082       .  S
C3141      C3142   1.342       .  D
C3141      H3149   1.087       .  S
C3142      H3150   1.086       .  S
C3151      C3159   1.481       .  S
C3151      C3152   1.400       .  A
C3151      C3156   1.410       .  A
C3152      C3153   1.394       .  A
C3152      H3161   1.084       .  S
C3153      C3154   1.407       .  A
C3153      H3162   1.083       .  S
C3154      C3157   1.478       .  S
C3154      C3155   1.400       .  A
C3155      C3156   1.398       .  A
C3155      H3163   1.084       .  S
C3156      H3164   1.082       .  S
C3157      C3158   1.339       .  D
C3157      H3165   1.086       .  S
C3158      H3166   1.086       .  S
C3159      C3160   1.341       .  D
C3159      H3167   1.087       .  S
C3160      H3168   1.085       .  S
C3169      C3177   1.494       .  S
C3169      C3170   1.406       .  A
C3169      C3174   1.408       .  A
C3170      C3171   1.401       .  A
C3170      H3179   1.083       .  S
C3171      C3172   1.408       .  A
C3171      H3180   1.080       .  S
C3172      C3175   1.493       .  S
C3172      C3173   1.406       .  A
C3173      C3174   1.400       .  A
C3173      H3181   1.083       .  S
C3174      H3182   1.080       .  S
C3175      C3176   1.351       .  D
C3175      H3183   1.087       .  S
C3176      H3184   1.083       .  S
C3177      C3178   1.351       .  D
C3177      H3185   1.086       .  S
C3178      H3186   1.083       .  S
C3187      C3195   1.497       .  S
C3187      C3188   1.406       .  A
C3187      C3192   1.408       .  A
C3188      C3189   1.401       .  A
C3188      H3197   1.083       .  S
C3189      C3190   1.409       .  A
C3189      H3198   1.079       .  S
C3190      C3193   1.498       .  S
C3190      C3191   1.407       .  A
C3191      C3192   1.402       .  A
C3191      H3199   1.083       .  S
C3192      H3200   1.080       .  S
C3193      C3194   1.351       .  D
C3193      H3201   1.086       .  S
C3194      H3202   1.082       .  S
C3195      C3196   1.352       .  D
C3195      H3203   1.085       .  S
C3196      H3204   1.082       .  S
C3205      C3213   1.499       .  S
C3205      C3206   1.407       .  A
C3205      C3210   1.409       .  A
C3206      C3207   1.403       .  A
C3206      H3215   1.084       .  S
C3207      C3208   1.409       .  A
C3207      H3216   1.080       .  S
C3208      C3211   1.499       .  S
C3208      C3209   1.406       .  A
C3209      C3210   1.403       .  A
C3209      H3217   1.084       .  S
C3210      H3218   1.080       .  S
C3211      C3212   1.350       .  D
C3211      H3219   1.085       .  S
C3212      H3220   1.083       .  S
C3213      C3214   1.352       .  D
C3213      H3221   1.085       .  S
C3214      H3222   1.082       .  S
C3223      C3231   1.487       .  S
C3223      C3224   1.403       .  A
C3223      C3228   1.409       .  A
C3224      C3225   1.395       .  A
C3224      H3233   1.084       .  S
C3225      C3226   1.406       .  A
C3225      H3234   1.082       .  S
C3226      C3229   1.485       .  S
C3226      C3227   1.403       .  A
C3227      C3228   1.401       .  A
C3227      H3235   1.083       .  S
C3228      H3236   1.081       .  S
C3229      C3230   1.345       .  D
C3229      H3237   1.086       .  S
C3230      H3238   1.080       .  S
C3231      C3232   1.347       .  D
C3231      H3239   1.087       .  S
C3232      H3240   1.084       .  S
C3241      C3249   1.483       .  S
C3241      C3242   1.401       .  A
C3241      C3246   1.407       .  A
C3242      C3243   1.398       .  A
C3242      H3251   1.083       .  S
C3243      C3244   1.409       .  A
C3243      H3252   1.082       .  S
C3244      C3247   1.487       .  S
C3244      C3245   1.403       .  A
C3245      C3246   1.399       .  A
C3245      H3253   1.083       .  S
C3246      H3254   1.082       .  S
C3247      C3248   1.344       .  D
C3247      H3255   1.087       .  S
C3248      H3256   1.086       .  S
C3249      C3250   1.343       .  D
C3249      H3257   1.087       .  S
C3250      H3258   1.085       .  S
C3259      C3267   1.487       .  S
C3259      C3260   1.403       .  A
C3259      C3264   1.408       .  A
C3260      C3261   1.400       .  A
C3260      H3269   1.083       .  S
C3261      C3262   1.409       .  A
C3261      H3270   1.081       .  S
C3262      C3265   1.487       .  S
C3262      C3263   1.402       .  A
C3263      C3264   1.396       .  A
C3263      H3271   1.084       .  S
C3264      H3272   1.081       .  S
C3265      C3266   1.345       .  D
C3265      H3273   1.087       .  S
C3266      H3274   1.084       .  S
C3267      C3268   1.344       .  D
C3267      H3275   1.087       .  S
C3268      H3276   1.084       .  S
C3277      C3285   1.482       .  S
C3277      C3278   1.404       .  A
C3277      C3282   1.405       .  A
C3278      C3279   1.394       .  A
C3278      H3287   1.084       .  S
C3279      C3280   1.404       .  A
C3279      H3288   1.080       .  S
C3280      C3283   1.483       .  S
C3280      C3281   1.406       .  A
C3281      C3282   1.398       .  A
C3281      H3289   1.084       .  S
C3282      H3290   1.081       .  S
C3283      C3284   1.350       .  D
C3283      H3291   1.087       .  S
C3284      H3292   1.083       .  S
C3285      C3286   1.350       .  D
C3285      H3293   1.087       .  S
C3286      H3294   1.084       .  S
C3295      C3303   1.480       .  S
C3295      C3296   1.404       .  A
C3295      C3300   1.406       .  A
C3296      C3297   1.392       .  A
C3296      H3305   1.084       .  S
C3297      C3298   1.404       .  A
C3297      H3306   1.080       .  S
C3298      C3301   1.480       .  S
C3298      C3299   1.404       .  A
C3299      C3300   1.397       .  A
C3299      H3307   1.084       .  S
C3300      H3308   1.080       .  S
C3301      C3302   1.348       .  D
C3301      H3309   1.087       .  S
C3302      H3310   1.084       .  S
C3303      C3304   1.348       .  D
C3303      H3311   1.087       .  S
C3304      H3312   1.084       .  S
C3313      C3321   1.488       .  S
C3313      C3314   1.400       .  A
C3313      C3318   1.410       .  A
C3314      C3315   1.398       .  A
C3314      H3323   1.083       .  S
C3315      C3316   1.411       .  A
C3315      H3324   1.082       .  S
C3316      C3319   1.491       .  S
C3316      C3317   1.401       .  A
C3317      C3318   1.400       .  A
C3317      H3325   1.083       .  S
C3318      H3326   1.082       .  S
C3319      C3320   1.341       .  D
C3319      H3327   1.086       .  S
C3320      H3328   1.086       .  S
C3321      C3322   1.341       .  D
C3321      H3329   1.087       .  S
C3322      H3330   1.086       .  S
C3331      C3339   1.491       .  S
C3331      C3332   1.404       .  A
C3331      C3336   1.409       .  A
C3332      H3341   1.083       .  S
C3333      C3334   1.409   1_545  A
C3333      H3342   1.081       .  S
C3334      C3337   1.491       .  S
C3335      C3336   1.399       .  A
C3335      H3343   1.083       .  S
C3336      H3344   1.081       .  S
C3337      C3338   1.347       .  D
C3337      H3345   1.087       .  S
C3338      H3346   1.085       .  S
C3339      C3340   1.345       .  D
C3339      H3347   1.086       .  S
C3340      H3348   1.083       .  S
C3349      C3357   1.484       .  S
C3349      C3350   1.401       .  A
C3350      H3359   1.083       .  S
C3351      C3352   1.410       .  A
C3351      H3360   1.081       .  S
C3352      C3355   1.483       .  S
C3352      C3353   1.400       .  A
C3353      C3354   1.394       .  A
C3353      H3361   1.084       .  S
C3355      C3356   1.341       .  D
C3355      H3363   1.086       .  S
C3356      H3364   1.083       .  S
C3357      C3358   1.343       .  D
C3357      H3365   1.087       .  S
C3358      H3366   1.086       .  S
C3367      C3375   1.489       .  S
C3367      C3368   1.401       .  A
C3367      C3372   1.410       .  A
C3368      C3369   1.399       .  A
C3368      H3377   1.083       .  S
C3369      C3370   1.410       .  A
C3369      H3378   1.081       .  S
C3370      C3373   1.488       .  S
C3370      C3371   1.401       .  A
C3371      C3372   1.398       .  A
C3371      H3379   1.083       .  S
C3372      H3380   1.081       .  S
C3373      C3374   1.342       .  D
C3373      H3381   1.087       .  S
C3374      H3382   1.084       .  S
C3375      C3376   1.343       .  D
C3375      H3383   1.087       .  S
C3376      H3384   1.085       .  S
