geometry optimzed in LAMMPS
_audit_creation_date              2020-12-01 
_audit_creation_method            'lammps2cif' 
_symmetry_space_group_name_H-M    'P1' 
_symmetry_Int_Tables_number       1 
_symmetry_cell_setting            triclinic 
loop_ 
_symmetry_equiv_pos_as_xyz 
  x,y,z 
_cell_length_a                    52.92132781 
_cell_length_b                    53.2404568950532 
_cell_length_c                    38.27082928125324 
_cell_angle_alpha                 90.02930520170618 
_cell_angle_beta                  89.95403160064538 
_cell_angle_gamma                 120.95327500061599 
loop_ 
_atom_site_label 
_atom_site_type_symbol 
_atom_site_fract_x 
_atom_site_fract_y 
_atom_site_fract_z 
_atom_site_charge 
O1          O  0.28034949  0.28301333  0.31150632    -0.82300
C2          C  0.35035066  0.23582081  0.29512007     0.97100
O3          O  0.33458250  0.24258082  0.27763634    -0.71400
O4          O  0.29524403  0.25744545  0.26139246    -0.75000
Al5        Al  0.33015981  0.27368188  0.29179756     1.49000
C6          C  0.26882405  0.23632342  0.26592921     0.92300
O7          O  0.26031444  0.21078854  0.36279016    -0.81200
O8          O  0.30467958  0.24819659  0.40191366    -0.74800
Al9        Al  0.27413456  0.24783445  0.33587124     1.90100
O10         O  0.29804470  0.20471674  0.35594346    -0.73800
O11         O  0.35557033  0.28327378  0.36947319    -0.73700
O12         O  0.35079978  0.23734235  0.32842931    -0.79300
O13         O  0.36895190  0.29289577  0.31481791    -0.77600
O14         O  0.31002951  0.25481841  0.32938680    -1.13700
O15         O  0.32819852  0.30680521  0.30255092    -0.72900
C16         C  0.30424220  0.30627927  0.30337830     0.97800
C17         C  0.27225997  0.19532463  0.36661058     0.94200
Al18       Al  0.32632456  0.24423376  0.36171552     1.55600
O19         O  0.26001444  0.22501230  0.29563783    -0.77500
C20         C  0.37570864  0.29478237  0.34707703     0.98400
C21         C  0.28965582  0.26075873  0.40318993     0.93300
O22         O  0.28592180  0.27109105  0.37575842    -0.82800
O23         O  0.19634723  0.18564840  0.06291914    -0.82300
C24         C  0.12771348  0.23460794  0.04391586     0.97100
O25         O  0.14370174  0.22764260  0.02721377    -0.71400
O26         O  0.18315477  0.21277306  0.01260763    -0.75000
Al27       Al  0.14741456  0.19600650  0.04143677     1.49000
C28         C  0.20956066  0.23345067  0.01832805     0.92300
O29         O  0.21555896  0.25729206  0.11522490    -0.81200
O30         O  0.16991390  0.22008432  0.15255325    -0.74800
Al31       Al  0.20204693  0.22049458  0.08788051     1.90100
O32         O  0.17857435  0.26431644  0.10693062    -0.73800
O33         O  0.11957867  0.18579026  0.11813622    -0.73700
O34         O  0.12625452  0.23255545  0.07719429    -0.79300
O35         O  0.10787201  0.17669283  0.06291675    -0.77600
O36         O  0.16650826  0.21414504  0.07986210    -1.13700
O37         O  0.14890831  0.16212230  0.05168803    -0.72900
C38         C  0.17289024  0.16258900  0.05322306     0.97800
C39         C  0.20407890  0.27323575  0.11840352     0.94200
Al40       Al  0.14955948  0.22476511  0.11147703     1.55600
O41         O  0.21778925  0.24397339  0.04843517    -0.77500
C42         C  0.10014343  0.17443926  0.09488170     0.98400
C43         C  0.18483300  0.20744752  0.15440487     0.93300
O44         O  0.18861510  0.19662825  0.12732026    -0.82800
O45         O  0.19081475  0.47911631  0.98247008    -0.82300
C46         C  0.24751283  0.09926215  0.45887612     0.97100
O47         O  0.24188781  0.07594499  0.44373651    -0.71400
O48         O  0.22297213  0.02025869  0.42812121    -0.75000
Al49       Al  0.20774849  0.04079777  0.45615837     1.49000
C50         C  0.24225189  0.01332323  0.43459468     0.92300
O51         O  0.26624127  0.03372666  0.03210211    -0.81200
O52         O  0.22967406  0.04257195  0.06908077    -0.74800
Al53       Al  0.22862962  0.00959204  0.00488388     1.90100
O54         O  0.27414247  0.07763982  0.02184036    -0.73800
O55         O  0.19630040  0.05895186  0.03275777    -0.73700
O56         O  0.24393752  0.09889460  0.49192861    -0.79300
O57         O  0.18912836  0.06168120  0.47667692    -0.77600
O58         O  0.22389518  0.03920786  0.99565308    -1.13700
O59         O  0.17053769  0.50477447  0.46760323    -0.72900
C60         C  0.16870403  0.48050945  0.47195335     0.97800
C61         C  0.28243162  0.06161071  0.03543121     0.94200
Al62       Al  0.23514144  0.06750923  0.02677032     1.55600
O63         O  0.25045335  0.51430048  0.46537532    -0.77500
C64         C  0.18529086  0.06633694  0.00855247     0.98400
C65         C  0.21604940  0.01465972  0.07142229     0.93300
O66         O  0.20396907  0.49885642  0.04557172    -0.82800
O67         O  0.28911752  0.49015703  0.23255037    -0.82300
C68         C  0.23431819  0.37108628  0.21114516     0.97100
O69         O  0.23936037  0.39421132  0.19595906    -0.71400
O70         O  0.25767823  0.44966610  0.18025493    -0.75000
Al71       Al  0.27362716  0.42965270  0.20709817     1.49000
C72         C  0.23889735  0.45703857  0.18743950     0.92300
O73         O  0.21657008  0.43624977  0.28532096    -0.81200
O74         O  0.25602035  0.42858279  0.32064286    -0.74800
Al75       Al  0.25342122  0.46098417  0.25741345     1.90100
O76         O  0.20957778  0.39194003  0.27870865    -0.73800
O77         O  0.28899404  0.41451662  0.28154757    -0.73700
O78         O  0.23939136  0.37196209  0.24392925    -0.79300
O79         O  0.29315271  0.40912116  0.22577316    -0.77600
O80         O  0.25843285  0.43151606  0.24755504    -1.13700
O81         O  0.30888431  0.46462972  0.21459412    -0.72900
C82         C  0.31227742  0.98983297  0.21871703     0.97800
C83         C  0.20134458  0.40853158  0.29091307     0.94200
Al84       Al  0.24940501  0.40382594  0.27887910     1.55600
O85         O  0.22940484  0.45472323  0.21816233    -0.77500
C86         C  0.29818633  0.40532988  0.25734898     0.98400
C87         C  0.26833547  0.45622015  0.32393693     0.93300
O88         O  0.27774342  0.47177370  0.29710226    -0.82800
O89         O  0.48039503  0.27466344  0.40080031    -0.82300
C90         C  0.09891309  0.34568388  0.38065326     0.97100
O91         O  0.07561626  0.32847346  0.36448639    -0.71400
O92         O  0.02043024  0.28799419  0.35034705    -0.75000
Al93       Al  0.03989630  0.32429794  0.37824547     1.49000
C94         C  0.01582205  0.26242184  0.35661496     0.92300
O95         O  0.03490623  0.25966276  0.45432569    -0.81200
O96         O  0.04098715  0.30573046  0.49047483    -0.74800
Al97       Al  0.01043787  0.27071540  0.42598221     1.90100
O98         O  0.07920856  0.29849310  0.44838903    -0.73800
O99         O  0.05592230  0.35380663  0.45312305    -0.73700
O100        O  0.09849167  0.34842948  0.41391397    -0.79300
O101        O  0.06059333  0.36469664  0.39790719    -0.77600
O102        O  0.03937916  0.30652184  0.41744729    -1.13700
O103        O  0.50421221  0.32181720  0.38887612    -0.72900
C104        C  0.48051724  0.29763780  0.39137093     0.97800
C105        C  0.06267858  0.27298771  0.45986896     0.94200
Al106      Al  0.06677829  0.32553548  0.44917035     1.55600
O107        O  0.01912898  0.25535776  0.38689482    -0.77500
C108        C  0.06523844  0.37299758  0.42972265     0.98400
C109        C  0.01301722  0.28933865  0.49216318     0.93300
O110        O  0.99854340  0.28323780  0.46457096    -0.82800
O111        O  0.99743902  0.19593597  0.15134903    -0.82300
C112        C  0.37761512  0.12765904  0.13361174     0.97100
O113        O  0.40079121  0.14528485  0.11750488    -0.71400
O114        O  0.45556927  0.18442541  0.10134130    -0.75000
Al115      Al  0.43643145  0.14803861  0.12832394     1.49000
C116        C  0.46185101  0.21036192  0.10859403     0.92300
O117        O  0.44404214  0.21175285  0.20659621    -0.81200
O118        O  0.43677025  0.16472561  0.24121682    -0.74800
Al119      Al  0.46817484  0.20062976  0.17768493     1.90100
O120        O  0.39933348  0.17324806  0.20042870    -0.73800
O121        O  0.42229609  0.11794809  0.20274657    -0.73700
O122        O  0.37874053  0.12294123  0.16613348    -0.79300
O123        O  0.41617049  0.10747649  0.14731416    -0.77600
O124        O  0.43851683  0.16525557  0.16847124    -1.13700
O125        O  0.47190586  0.14946381  0.13583567    -0.72900
C126        C  0.99614121  0.17290289  0.13955677     0.97800
C127        C  0.41623551  0.19863546  0.21212408     0.94200
Al128      Al  0.41124226  0.14588859  0.20029893     1.55600
O129        O  0.46036497  0.21754093  0.13948720    -0.77500
C130        C  0.41309276  0.09905883  0.17908724     0.98400
C131        C  0.46465607  0.18051096  0.24352634     0.93300
O132        O  0.47962089  0.18720353  0.21613936    -0.82800
C133        C  0.00336320  0.23937671  0.32968143    -0.00600
C134        C  0.02170230  0.23869863  0.30394730    -0.12500
C135        C  0.01019865  0.21736389  0.27759510     0.01600
C136        C  0.47939962  0.19644861  0.27635222    -0.00700
C137        C  0.46169278  0.19592550  0.30397060    -0.12500
C138        C  0.47330107  0.21708352  0.33040644     0.01500
H139        H  0.04502018  0.25513056  0.30418665     0.14500
H140        H  0.43828569  0.18004212  0.30390783     0.14500
C141        C  0.45335525  0.21617676  0.35683334     0.36100
C142        C  0.03057735  0.21832405  0.25172090     0.36000
N143        N  0.43686343  0.21495607  0.37762054    -0.44200
N144        N  0.04695011  0.21923018  0.23096923    -0.44200
C145        C  0.47321314  0.23311439  0.08124287    -0.00600
C146        C  0.45701221  0.22780984  0.05067937    -0.12500
C147        C  0.46826213  0.24736362  0.02264283     0.01600
C148        C  0.99725456  0.27267064  0.02435020    -0.00700
C149        C  0.01270815  0.27867039  0.05598091    -0.12500
C150        C  0.00080709  0.25938087  0.08443708     0.01500
H151        H  0.43559023  0.20792464  0.04848704     0.14500
H152        H  0.03464261  0.29779810  0.05806421     0.14500
C153        C  0.01826706  0.26614117  0.11581308     0.36100
C154        C  0.44963952  0.23941127  0.99207620     0.36000
N155        N  0.03229770  0.27167822  0.14094874    -0.44200
N156        N  0.43447310  0.23274298  0.46781755    -0.44200
C157        C  0.12574778  0.36418045  0.35938385    -0.00600
C158        C  0.15186497  0.36517591  0.36773536    -0.12500
C159        C  0.17635404  0.37909353  0.34548285     0.01600
C160        C  0.17611208  0.39510110  0.31577143    -0.00700
C161        C  0.15030924  0.39510411  0.30816319    -0.12500
C162        C  0.12488859  0.37880035  0.32866725     0.01500
H163        H  0.15246603  0.35327151  0.39042273     0.14500
H164        H  0.14939960  0.40618625  0.28484288     0.14500
C165        C  0.09789506  0.37617482  0.31620987     0.36100
C166        C  0.20072940  0.37509030  0.35334372     0.36000
N167        N  0.07631204  0.37375982  0.30546696    -0.44200
N168        N  0.21975720  0.37125687  0.36036330    -0.44200
C169        C  0.39261918  0.06803848  0.18950337    -0.00600
C170        C  0.37517265  0.04755503  0.16384289    -0.12500
C171        C  0.34940819  0.02142878  0.17305468     0.01600
C172        C  0.33998086  0.01620220  0.20824439    -0.00700
C173        C  0.35852989  0.03510808  0.23408518    -0.12500
C174        C  0.38510151  0.06034060  0.22527783     0.01500
H175        H  0.38080137  0.05252963  0.13640515     0.14500
H176        H  0.35232722  0.02994259  0.26136254     0.14500
C177        C  0.40356725  0.07813117  0.25377883     0.36100
C178        C  0.33288012  0.00046535  0.14596287     0.36000
N179        N  0.41826981  0.09232523  0.27667399    -0.44200
N180        N  0.32003832  0.98339182  0.12432132    -0.44200
C181        C  0.22962607  0.47053520  0.16028183    -0.00600
C182        C  0.21693839  0.45508772  0.12964118    -0.12500
C183        C  0.20996010  0.46776375  0.10210257     0.01600
C184        C  0.21654585  0.49742210  0.10432918    -0.00700
C185        C  0.22914477  0.01363313  0.13458482    -0.12500
C186        C  0.23479443  0.49930596  0.16371255     0.01500
H187        H  0.21287042  0.43300179  0.12699007     0.14500
H188        H  0.23392974  0.03594115  0.13722437     0.14500
C189        C  0.24827293  0.01745696  0.19387571     0.36100
C190        C  0.19770472  0.44968644  0.07136659     0.36000
N191        N  0.25839687  0.03104346  0.21904199    -0.44200
N192        N  0.18810032  0.43486124  0.04697582    -0.44200
C193        C  0.26575732  0.47002810  0.35682933    -0.00600
C194        C  0.24104150  0.45343344  0.37811743    -0.12500
C195        C  0.24009581  0.96912232  0.40733267     0.01600
C196        C  0.24839068  0.49730612  0.40788434    -0.00700
C197        C  0.27435157  0.51390639  0.38851131    -0.12500
C198        C  0.28306285  0.50064465  0.36309702     0.01500
H199        H  0.22742504  0.43013493  0.37390145     0.14500
H200        H  0.28767359  0.53732847  0.39295043     0.14500
C201        C  0.30986642  0.51902289  0.34386790     0.36100
C202        C  0.21870795  0.94995354  0.43280569     0.36000
N203        N  0.33146035  0.53387299  0.32868125    -0.44200
N204        N  0.20161824  0.93411418  0.45296263    -0.44200
C205        C  0.30833214  0.07674097  0.05964478    -0.00600
C206        C  0.32515234  0.10759729  0.05787720    -0.12500
C207        C  0.34554777  0.12438915  0.08368849     0.01600
C208        C  0.35067249  0.11068878  0.11203387    -0.00700
C209        C  0.33414530  0.07989675  0.11420384    -0.12500
C210        C  0.31311130  0.06293303  0.08835913     0.01500
H211        H  0.32181574  0.11896575  0.03665089     0.14500
H212        H  0.33839593  0.06908888  0.13524000     0.14500
C213        C  0.29689711  0.03154108  0.09192097     0.36100
C214        C  0.36079538  0.15594792  0.08059712     0.36000
N215        N  0.28309236  0.50561802  0.09639002    -0.44200
N216        N  0.37295638  0.18119438  0.07819933    -0.44200
C217        C  0.14078759  0.45399543  0.46204029    -0.00600
C218        C  0.13193524  0.45034084  0.42691959    -0.12500
C219        C  0.10541816  0.42572346  0.41596623     0.01600
C220        C  0.08752631  0.40368899  0.44030558    -0.00700
C221        C  0.09538435  0.40902396  0.47605397    -0.12500
C222        C  0.12158180  0.43393098  0.48695981     0.01500
H223        H  0.14591607  0.46681390  0.40792180     0.14500
H224        H  0.08163162  0.39311284  0.49565312     0.14500
C225        C  0.12784160  0.43903750  0.02385966     0.36100
C226        C  0.09684551  0.42444190  0.38000491     0.36000
N227        N  0.13260238  0.44346003  0.05343370    -0.44200
N228        N  0.09001466  0.42441665  0.35130375    -0.44200
C229        C  0.02256383  0.17291521  0.12780087    -0.00600
C230        C  0.03678441  0.16403362  0.15112803    -0.12500
C231        C  0.06015078  0.16075976  0.13994830     0.01600
C232        C  0.06980758  0.16664781  0.10472189    -0.00700
C233        C  0.05403482  0.17357162  0.08096049    -0.12500
C234        C  0.03059982  0.17670082  0.09219989     0.01500
H235        H  0.02953196  0.15955240  0.17811719     0.14500
H236        H  0.06117354  0.17845871  0.05398057     0.14500
C237        C  0.01543935  0.18428489  0.06678312     0.36100
C238        C  0.07405282  0.15168830  0.16533413     0.36000
N239        N  0.00337549  0.19029430  0.04623545    -0.44200
N240        N  0.08507875  0.14436811  0.18577313    -0.44200
C241        C  0.07623436  0.26105700  0.48348340    -0.00600
C242        C  0.07684708  0.23605076  0.47392120    -0.12500
C243        C  0.09350453  0.22717415  0.99323272     0.01600
C244        C  0.10898909  0.24277269  0.02372482    -0.00700
C245        C  0.10708107  0.26684422  0.53421124    -0.12500
C246        C  0.09167443  0.27657377  0.51401820     0.01500
H247        H  0.06550233  0.22428676  0.45039732     0.14500
H248        H  0.11892514  0.27902573  0.05734276     0.14500
C249        C  0.09317510  0.30327248  0.52490139     0.36100
C250        C  0.09455736  0.20216610  0.98063919     0.36000
N251        N  0.09514742  0.32493392  0.53406347    -0.44200
N252        N  0.09545872  0.18227223  0.97006601    -0.44200
C253        C  0.21731947  0.30007454  0.14028346    -0.00600
C254        C  0.22257914  0.29791219  0.17589394    -0.12500
C255        C  0.22678311  0.31979587  0.20005252     0.01600
C256        C  0.22640497  0.34492180  0.18855683    -0.00700
C257        C  0.22163255  0.34699435  0.15264140    -0.12500
C258        C  0.21693598  0.32501596  0.12887424     0.01500
H259        H  0.22161507  0.27821225  0.18526898     0.14500
H260        H  0.22139452  0.36595231  0.14275292     0.14500
C261        C  0.21114399  0.32831954  0.09278494     0.36100
C262        C  0.23046437  0.31525939  0.23640739     0.36000
N263        N  0.20642943  0.33098615  0.06392441    -0.44200
N264        N  0.23316120  0.31132781  0.26555201    -0.44200
C265        C  0.17468518  0.08658066  0.01767639    -0.00600
C266        C  0.18151183  0.10979801  0.99468094    -0.12500
C267        C  0.18131828  0.13476128  0.00601113     0.01600
C268        C  0.17356570  0.13663980  0.04079654    -0.00700
C269        C  0.16439362  0.11257929  0.06303233    -0.12500
C270        C  0.16506964  0.08776714  0.05191532     0.01500
H271        H  0.18920955  0.10951647  0.46847480     0.14500
H272        H  0.15737011  0.11347092  0.08939901     0.14500
C273        C  0.15649716  0.06413755  0.07647175     0.36100
C274        C  0.19009013  0.15849670  0.48158287     0.36000
N275        N  0.14972075  0.04520796  0.09613793    -0.44200
N276        N  0.19722377  0.17722061  0.46152799    -0.44200
C277        C  0.40296376  0.21053291  0.23606361    -0.00600
C278        C  0.40402515  0.23663014  0.22790965    -0.12500
C279        C  0.38729298  0.24544841  0.24712099     0.01600
C280        C  0.36996908  0.22847142  0.27592708    -0.00700
C281        C  0.37051410  0.20350287  0.28542003    -0.12500
C282        C  0.38610586  0.19399005  0.26537965     0.01500
H283        H  0.41668583  0.24931238  0.20546779     0.14500
H284        H  0.35738251  0.19048361  0.30744776     0.14500
C285        C  0.38316917  0.16640578  0.27503074     0.36100
C286        C  0.38824818  0.27192944  0.23642963     0.36000
N287        N  0.38007899  0.14407736  0.28327059    -0.44200
N288        N  0.38916398  0.29315497  0.22752638    -0.44200
C289        C  0.40559701  0.30190654  0.35789882    -0.00600
C290        C  0.42193963  0.29598070  0.33383255    -0.12500
C291        C  0.44531207  0.29278136  0.34478002     0.01600
C292        C  0.45348753  0.29656555  0.38026687    -0.00700
C293        C  0.43837720  0.30394472  0.40420338    -0.12500
C294        C  0.41434607  0.30627795  0.39351241     0.01500
H295        H  0.41521840  0.29176127  0.30668968     0.14500
H296        H  0.44526800  0.30769398  0.43134215     0.14500
C297        C  0.39860147  0.31226812  0.41989808     0.36100
C298        C  0.45995950  0.28473505  0.31915234     0.36000
N299        N  0.38588003  0.31678016  0.44117941    -0.44200
N300        N  0.47127875  0.27807041  0.29830060    -0.44200
C301        C  0.27183139  0.25880431  0.43431630    -0.00600
C302        C  0.27785749  0.25069245  0.46665734    -0.12500
C303        C  0.25840453  0.24357335  0.49483242     0.01600
C304        C  0.23188976  0.24369099  0.49054090    -0.00700
C305        C  0.22624327  0.25270432  0.45892799    -0.12500
C306        C  0.24599425  0.26078860  0.43111179     0.01500
H307        H  0.29732096  0.24901689  0.46965085     0.14500
H308        H  0.20608696  0.25316240  0.45587958     0.14500
C309        C  0.23780975  0.26956860  0.39938720     0.36100
C310        C  0.26548180  0.23471605  0.02723960     0.36000
N311        N  0.23090193  0.27652078  0.37419743    -0.44200
N312        N  0.27133881  0.22775265  0.05319644    -0.44200
C313        C  0.24678157  0.22664237  0.23767845    -0.00600
C314        C  0.21872539  0.22229370  0.24546310    -0.12500
C315        C  0.19744961  0.21482967  0.21927504     0.01600
C316        C  0.20401451  0.21123846  0.18471009    -0.00700
C317        C  0.23172828  0.21439461  0.17746456    -0.12500
C318        C  0.25304551  0.22223679  0.20341464     0.01500
H319        H  0.21365003  0.22542561  0.27199882     0.14500
H320        H  0.23736320  0.21173866  0.15103117     0.14500
C321        C  0.28089640  0.22501935  0.19442322     0.36100
C322        C  0.16896366  0.21028269  0.22855279     0.36000
N323        N  0.30318097  0.22712680  0.18737660    -0.44200
N324        N  0.14598032  0.20632699  0.23591617    -0.44200
C325        C  0.25945979  0.16874780  0.38870770    -0.00600
C326        C  0.25759881  0.17197647  0.42495971    -0.12500
C327        C  0.25520491  0.15061365  0.44872935     0.01600
C328        C  0.25394239  0.12492716  0.43624434    -0.00700
C329        C  0.25537409  0.12180360  0.39975622    -0.12500
C330        C  0.25831008  0.14330792  0.37631150    -0.00300
H331        H  0.25996937  0.19214922  0.43490502     0.14500
H332        H  0.25432054  0.10240663  0.38914741     0.14500
C333        C  0.26087597  0.13912728  0.33945795     0.36100
C334        C  0.25519291  0.15628436  0.48560343     0.36000
N335        N  0.26294814  0.13576051  0.30995043    -0.44200
N336        N  0.25527004  0.16096944  0.51515067    -0.44200
C337        C  0.30455703  0.33267994  0.29185489    -0.00600
C338        C  0.30520025  0.33796657  0.25588214    -0.12500
C339        C  0.30650181  0.36334420  0.24331569     0.01600
C340        C  0.30735455  0.38408049  0.26720601    -0.00700
C341        C  0.30950832  0.37969475  0.30326942    -0.12500
C342        C  0.30780629  0.35416005  0.31564318     0.01500
H343        H  0.30402349  0.32184662  0.23755256     0.14500
H344        H  0.31066216  0.39540858  0.32219755     0.14500
C345        C  0.30888711  0.35016369  0.35282995     0.36100
C346        C  0.30551728  0.36658906  0.20598476     0.36000
N347        N  0.30976009  0.34689151  0.38260341    -0.44200
N348        N  0.30469402  0.36901276  0.17602306    -0.44200
O349        O  0.28034185  0.28300922  0.81149129    -0.82300
C350        C  0.35033142  0.23580985  0.79511470     0.97100
O351        O  0.33456036  0.24256745  0.77763405    -0.71400
O352        O  0.29523170  0.25744002  0.76138843    -0.75000
Al353      Al  0.33014893  0.27367449  0.79179159     1.49000
C354        C  0.26881330  0.23631485  0.76592565     0.92300
O355        O  0.26030581  0.21078907  0.86279522    -0.81200
O356        O  0.30467698  0.24820800  0.90190745    -0.74800
Al357      Al  0.27412522  0.24783163  0.83586495     1.90100
O358        O  0.29803619  0.20471828  0.85594855    -0.73800
O359        O  0.35556522  0.28327437  0.86946147    -0.73700
O360        O  0.35078593  0.23733466  0.82842410    -0.79300
O361        O  0.36894636  0.29288542  0.81480654    -0.77600
O362        O  0.31002018  0.25481554  0.82938257    -1.13700
O363        O  0.32819291  0.30680084  0.80254565    -0.72900
C364        C  0.30423667  0.30627575  0.80336801     0.97800
C365        C  0.27225292  0.19532669  0.86661929     0.94200
Al366      Al  0.32631668  0.24423443  0.86171193     1.55600
O367        O  0.26000612  0.22500327  0.79563477    -0.77500
C368        C  0.37570423  0.29477348  0.84706564     0.98400
C369        C  0.28965463  0.26077197  0.90318029     0.93300
O370        O  0.28591226  0.27109386  0.87574531    -0.82800
O371        O  0.19634008  0.18563560  0.56292204    -0.82300
C372        C  0.12769557  0.23458006  0.54390292     0.97100
O373        O  0.14368498  0.22761345  0.52720570    -0.71400
O374        O  0.18314320  0.21274945  0.51260980    -0.75000
Al375      Al  0.14740081  0.19598094  0.54143466     1.49000
C376        C  0.20954751  0.23343057  0.51833014     0.92300
O377        O  0.21553297  0.25728014  0.61522678    -0.81200
O378        O  0.16989014  0.22006411  0.65255317    -0.74800
Al379      Al  0.20203087  0.22048150  0.58788258     1.90100
O380        O  0.17854131  0.26429266  0.60692856    -0.73800
O381        O  0.11955960  0.18575970  0.61812939    -0.73700
O382        O  0.12622968  0.23252447  0.57718149    -0.79300
O383        O  0.10785560  0.17666488  0.56290946    -0.77600
O384        O  0.16649036  0.21412409  0.57986015    -1.13700
O385        O  0.14890056  0.16210049  0.55169262    -0.72900
C386        C  0.17288599  0.16257337  0.55322331     0.97800
C387        C  0.20404583  0.27321807  0.61840512     0.94200
Al388      Al  0.14953409  0.22473849  0.61147210     1.55600
O389        O  0.21777243  0.24395958  0.54843567    -0.77500
C390        C  0.10012538  0.17441217  0.59487369     0.98400
C391        C  0.18481531  0.20743358  0.65440584     0.93300
O392        O  0.18859964  0.19661530  0.62732199    -0.82800
O393        O  0.19081765  0.47910634  0.48245527    -0.82300
C394        C  0.24753222  0.09927915  0.95889959     0.97100
O395        O  0.24190530  0.07596073  0.94376257    -0.71400
O396        O  0.22298140  0.02027578  0.92814490    -0.75000
Al397      Al  0.20776152  0.04081588  0.95618395     1.49000
C398        C  0.24225048  0.01332624  0.93461867     0.92300
O399        O  0.26624090  0.03373034  0.53208374    -0.81200
O400        O  0.22964849  0.04254939  0.56905575    -0.74800
Al401      Al  0.22863453  0.00958909  0.50485453     1.90100
O402        O  0.27412521  0.07763879  0.52183589    -0.73800
O403        O  0.19627017  0.05891834  0.53272477    -0.73700
O404        O  0.24396143  0.09891348  0.99195203    -0.79300
O405        O  0.18914676  0.06170103  0.97670847    -0.77600
O406        O  0.22388625  0.03919604  0.49562803    -1.13700
O407        O  0.17055143  0.50479399  0.96759289    -0.72900
C408        C  0.16870775  0.48052561  0.97195624     0.97800
C409        C  0.28242157  0.06161449  0.53542348     0.94200
Al410      Al  0.23511766  0.06749114  0.52674905     1.55600
O411        O  0.25045052  0.51428904  0.96538753    -0.77500
C412        C  0.18526840  0.06631288  0.50852088     0.98400
C413        C  0.21603603  0.01463700  0.57138934     0.93300
O414        O  0.20396534  0.49883885  0.54555923    -0.82800
O415        O  0.28910624  0.49015131  0.73254364    -0.82300
C416        C  0.23429937  0.37107942  0.71114516     0.97100
O417        O  0.23934780  0.39420540  0.69595580    -0.71400
O418        O  0.25766691  0.44966017  0.68025147    -0.75000
Al419      Al  0.27361574  0.42964682  0.70709400     1.49000
C420        C  0.23888404  0.45702988  0.68743609     0.92300
O421        O  0.21656321  0.43624976  0.78532209    -0.81200
O422        O  0.25601958  0.42858513  0.82064112    -0.74800
Al423      Al  0.25341183  0.46098056  0.75740940     1.90100
O424        O  0.20957056  0.39194041  0.77871210    -0.73800
O425        O  0.28898552  0.41450745  0.78154210    -0.73700
O426        O  0.23937638  0.37195726  0.74392865    -0.79300
O427        O  0.29314004  0.40911393  0.72576580    -0.77600
O428        O  0.25842407  0.43151216  0.74755254    -1.13700
O429        O  0.30887395  0.46462425  0.71458871    -0.72900
C430        C  0.31227294  0.98984364  0.71871326     0.97800
C431        C  0.20133840  0.40853229  0.79091765     0.94200
Al432      Al  0.24939726  0.40382342  0.77887774     1.55600
O433        O  0.22939265  0.45471519  0.71815945    -0.77500
C434        C  0.29817711  0.40532277  0.75733994     0.98400
C435        C  0.26833362  0.45622297  0.82393306     0.93300
O436        O  0.27773617  0.47177444  0.79709627    -0.82800
O437        O  0.48039501  0.27465612  0.90079935    -0.82300
C438        C  0.09891293  0.34568537  0.88066915     0.97100
O439        O  0.07561611  0.32847854  0.86449988    -0.71400
O440        O  0.02042955  0.28800082  0.85035798    -0.75000
Al441      Al  0.03989614  0.32430297  0.87826045     1.49000
C442        C  0.01581970  0.26242721  0.85662277     0.92300
O443        O  0.03489892  0.25965866  0.95433657    -0.81200
O444        O  0.04097824  0.30572306  0.99048675    -0.74800
Al445      Al  0.01043425  0.27071512  0.92598926     1.90100
O446        O  0.07920119  0.29848694  0.94839710    -0.73800
O447        O  0.05592354  0.35380610  0.95314202    -0.73700
O448        O  0.09849049  0.34842707  0.91393047    -0.79300
O449        O  0.06059571  0.36470151  0.89792782    -0.77600
O450        O  0.03937657  0.30652257  0.91745929    -1.13700
O451        O  0.50421372  0.32181041  0.88887752    -0.72900
C452        C  0.48051819  0.29763032  0.89136636     0.97800
C453        C  0.06267107  0.27298347  0.95988154     0.94200
Al454      Al  0.06677436  0.32553154  0.94918417     1.55600
O455        O  0.01912852  0.25536122  0.88690092    -0.77500
C456        C  0.06524160  0.37299965  0.92974454     0.98400
C457        C  0.01300767  0.28933184  0.99217127     0.93300
O458        O  0.99853650  0.28323489  0.96457738    -0.82800
O459        O  0.99744332  0.19595168  0.65135273    -0.82300
C460        C  0.37761658  0.12766720  0.63359673     0.97100
O461        O  0.40079399  0.14528787  0.61748776    -0.71400
O462        O  0.45557535  0.18443448  0.60133480    -0.75000
Al463      Al  0.43643594  0.14804861  0.62832227     1.49000
C464        C  0.46185058  0.21037003  0.60858283     0.92300
O465        O  0.44403319  0.21176680  0.70658250    -0.81200
O466        O  0.43676556  0.16474451  0.74120760    -0.74800
Al467      Al  0.46816880  0.20064633  0.67767459     1.90100
O468        O  0.39932698  0.17326042  0.70040895    -0.73800
O469        O  0.42229529  0.11796627  0.70274780    -0.73700
O470        O  0.37874043  0.12295399  0.66612055    -0.79300
O471        O  0.41617414  0.10748760  0.64731816    -0.77600
O472        O  0.43851418  0.16526947  0.66846354    -1.13700
O473        O  0.47191151  0.14947955  0.63585253    -0.72900
C474        C  0.99614871  0.17291791  0.63956894     0.97800
C475        C  0.41622625  0.19864692  0.71210711     0.94200
Al476      Al  0.41123878  0.14590399  0.70028909     1.55600
O477        O  0.46035511  0.21754963  0.63947277    -0.77500
C478        C  0.41309304  0.09907373  0.67909311     0.98400
C479        C  0.46465160  0.18052845  0.74351741     0.93300
O480        O  0.47961695  0.18722574  0.71613070    -0.82800
C481        C  0.00335753  0.23938371  0.82968736    -0.00600
C482        C  0.02169466  0.23870767  0.80394958    -0.12500
C483        C  0.01018932  0.21737611  0.77759424     0.01600
C484        C  0.47939735  0.19645634  0.77634640    -0.00700
C485        C  0.46169326  0.19592240  0.80397445    -0.12500
C486        C  0.47330419  0.21707266  0.83041865     0.01500
H487        H  0.04501272  0.25513869  0.80418892     0.14500
H488        H  0.43828727  0.18003688  0.80391432     0.14500
C489        C  0.45336322  0.21615295  0.85686119     0.36100
C490        C  0.03056782  0.21833905  0.75171790     0.36000
N491        N  0.43687637  0.21492168  0.87766272    -0.44200
N492        N  0.04694080  0.21924797  0.73096467    -0.44200
C493        C  0.47322001  0.23312299  0.58123340    -0.00600
C494        C  0.45700650  0.22783943  0.55068462    -0.12500
C495        C  0.46825729  0.24739865  0.52265305     0.01600
C496        C  0.99726846  0.27268151  0.52434570    -0.00700
C497        C  0.01273318  0.27866999  0.55596695    -0.12500
C498        C  0.00083563  0.25937820  0.58442115     0.01500
H499        H  0.43557303  0.20796693  0.54850001     0.14500
H500        H  0.03467445  0.29778842  0.55804240     0.14500
C501        C  0.01831231  0.26611923  0.61578041     0.36100
C502        C  0.44962130  0.23947142  0.49210115     0.36000
N503        N  0.03235868  0.27164083  0.64090074    -0.44200
N504        N  0.43450083  0.23266162  0.96778216    -0.44200
C505        C  0.12574825  0.36418389  0.85940109    -0.00600
C506        C  0.15186095  0.36516455  0.86773670    -0.12500
C507        C  0.17634907  0.37908565  0.84548281     0.01600
C508        C  0.17610840  0.39510277  0.81578064    -0.00700
C509        C  0.15031030  0.39512030  0.80818897    -0.12500
C510        C  0.12489222  0.37882058  0.82869897     0.01500
H511        H  0.15245990  0.35324961  0.89041419     0.14500
H512        H  0.14940214  0.40621325  0.78487786     0.14500
C513        C  0.09790329  0.37621838  0.81626418     0.36100
C514        C  0.20072465  0.37508084  0.85333550     0.36000
N515        N  0.07632283  0.37382068  0.80553901    -0.44200
N516        N  0.21975316  0.37124667  0.86034816    -0.44200
C517        C  0.39261783  0.06805466  0.68951443    -0.00600
C518        C  0.37518316  0.04756511  0.66385349    -0.12500
C519        C  0.34941872  0.02143717  0.67306093     0.01600
C520        C  0.33997925  0.01621358  0.70824640    -0.00700
C521        C  0.35851649  0.03512676  0.73409000    -0.12500
C522        C  0.38508777  0.06036225  0.72528818     0.01500
H523        H  0.38082104  0.05253619  0.63641686     0.14500
H524        H  0.35230414  0.02996532  0.76136575     0.14500
C525        C  0.40353877  0.07816152  0.75379371     0.36100
C526        C  0.33290111  0.00047094  0.64596752     0.36000
N527        N  0.41822907  0.09236247  0.77669259    -0.44200
N528        N  0.32006740  0.98339673  0.62432374    -0.44200
C529        C  0.22960883  0.47052224  0.66027751    -0.00600
C530        C  0.21692355  0.45507331  0.62963663    -0.12500
C531        C  0.20994063  0.46774581  0.60209823     0.01600
C532        C  0.21652502  0.49740375  0.60432274    -0.00700
C533        C  0.22907900  0.01359460  0.63456762    -0.12500
C534        C  0.23476938  0.49929005  0.66370854     0.01500
H535        H  0.21285876  0.43298859  0.62698647     0.14500
H536        H  0.23382080  0.03588747  0.63721930     0.14500
C537        C  0.24813570  0.01740484  0.69389391     0.36100
C538        C  0.19767636  0.44966422  0.57136673     0.36000
N539        N  0.25820433  0.03097630  0.71908279    -0.44200
N540        N  0.18806313  0.43483641  0.54697934    -0.44200
C541        C  0.26576293  0.47003419  0.85682816    -0.00600
C542        C  0.24106053  0.45343559  0.87813534    -0.12500
C543        C  0.24011621  0.96913640  0.90735420     0.01600
C544        C  0.24839902  0.49730871  0.90789235    -0.00700
C545        C  0.27434776  0.51391374  0.88850142    -0.12500
C546        C  0.28305728  0.50065450  0.86308205     0.01500
H547        H  0.22745114  0.43013380  0.87392983     0.14500
H548        H  0.28766057  0.53733811  0.89292902     0.14500
C549        C  0.30984513  0.51904225  0.84383052     0.36100
C550        C  0.21874805  0.94996586  0.93284311     0.36000
N551        N  0.33142643  0.53390420  0.82862765    -0.44200
N552        N  0.20167407  0.93412854  0.95301464    -0.44200
C553        C  0.30832157  0.07674879  0.55963939    -0.00600
C554        C  0.32513674  0.10760606  0.55787649    -0.12500
C555        C  0.34553939  0.12439807  0.58368286     0.01600
C556        C  0.35067179  0.11069741  0.61202141    -0.00700
C557        C  0.33414710  0.07990550  0.61418907    -0.12500
C558        C  0.31310904  0.06294146  0.58834819     0.01500
H559        H  0.32179338  0.11897452  0.53665622     0.14500
H560        H  0.33840384  0.06909761  0.63522016     0.14500
C561        C  0.29690151  0.03154960  0.59190911     0.36100
C562        C  0.36078695  0.15595701  0.58059413     0.36000
N563        N  0.28308337  0.50562053  0.59639722    -0.44200
N564        N  0.37294834  0.18120369  0.57819926    -0.44200
C565        C  0.14078614  0.45401212  0.96205160    -0.00600
C566        C  0.13190935  0.45036609  0.92694015    -0.12500
C567        C  0.10539443  0.42574080  0.91599480     0.01600
C568        C  0.08752941  0.40369088  0.94033187    -0.00700
C569        C  0.09541026  0.40901610  0.97607482    -0.12500
C570        C  0.12160478  0.43392987  0.98697344     0.01500
H571        H  0.14587067  0.46685078  0.90794220     0.14500
H572        H  0.08167765  0.39309352  0.99567478     0.14500
C573        C  0.12780070  0.43904804  0.52384851     0.36100
C574        C  0.09679479  0.42446643  0.88004608     0.36000
N575        N  0.13254996  0.44347839  0.55342341    -0.44200
N576        N  0.08994172  0.42444598  0.85135611    -0.44200
C577        C  0.02257204  0.17293170  0.62781223    -0.00600
C578        C  0.03676407  0.16400181  0.65111962    -0.12500
C579        C  0.06012220  0.16071817  0.63992899     0.01600
C580        C  0.06979413  0.16663706  0.60471029    -0.00700
C581        C  0.05405070  0.17361244  0.58096628    -0.12500
C582        C  0.03062915  0.17675891  0.59221770     0.01500
H583        H  0.02949621  0.15949125  0.67810157     0.14500
H584        H  0.06120403  0.17852668  0.55399407     0.14500
C585        C  0.01550246  0.18439988  0.56681906     0.36100
C586        C  0.07399961  0.15160279  0.66529498     0.36000
N587        N  0.00346712  0.19045585  0.54628463    -0.44200
N588        N  0.08500511  0.14424695  0.68571853    -0.44200
C589        C  0.07622744  0.26105772  0.98350336    -0.00600
C590        C  0.07682760  0.23604111  0.97396003    -0.12500
C591        C  0.09351930  0.22717737  0.49319243     0.01600
C592        C  0.10898151  0.24275485  0.52370555    -0.00700
C593        C  0.10709856  0.26687061  0.03421589    -0.12500
C594        C  0.09168158  0.27658942  0.01402490     0.01500
H595        H  0.06546821  0.22426249  0.95044927     0.14500
H596        H  0.11889437  0.27898639  0.55735077     0.14500
C597        C  0.09318139  0.30328954  0.02489996     0.36100
C598        C  0.09459359  0.20218758  0.48057249     0.36000
N599        N  0.09515099  0.32495090  0.03405726    -0.44200
N600        N  0.09551419  0.18231038  0.46997615    -0.44200
C601        C  0.21727791  0.30005659  0.64028776    -0.00600
C602        C  0.22254243  0.29789725  0.67589751    -0.12500
C603        C  0.22675150  0.31978356  0.70005532     0.01600
C604        C  0.22637188  0.34490889  0.68856051    -0.00700
C605        C  0.22158671  0.34697530  0.65264757    -0.12500
C606        C  0.21688716  0.32499515  0.62888066     0.01500
H607        H  0.22158230  0.27819884  0.68527253     0.14500
H608        H  0.22134506  0.36593160  0.64276036     0.14500
C609        C  0.21109261  0.32829808  0.59279222     0.36100
C610        C  0.23044348  0.31525254  0.73640860     0.36000
N611        N  0.20637800  0.33096592  0.56393212    -0.44200
N612        N  0.23314946  0.31132628  0.76555226    -0.44200
C613        C  0.17467274  0.08656435  0.51764971    -0.00600
C614        C  0.18151362  0.10979162  0.49466471    -0.12500
C615        C  0.18132387  0.13475532  0.50600326     0.01600
C616        C  0.17356715  0.13662779  0.54078948    -0.00700
C617        C  0.16438435  0.11255908  0.56301482    -0.12500
C618        C  0.16505167  0.08774446  0.55188748     0.01500
H619        H  0.18920469  0.10951858  0.96849076     0.14500
H620        H  0.15735498  0.11344417  0.58938062     0.14500
C621        C  0.15646009  0.06410259  0.57643057     0.36100
C622        C  0.19008701  0.15850137  0.98158777     0.36000
N623        N  0.14966746  0.04516196  0.59608470    -0.44200
N624        N  0.19722565  0.17722712  0.96153431    -0.44200
C625        C  0.40295147  0.21053905  0.73604790    -0.00600
C626        C  0.40399505  0.23662589  0.72788532    -0.12500
C627        C  0.38725776  0.24543675  0.74709740     0.01600
C628        C  0.36995032  0.22846534  0.77591615    -0.00700
C629        C  0.37051129  0.20350656  0.78541517    -0.12500
C630        C  0.38610403  0.19399781  0.76537045     0.01500
H631        H  0.41664384  0.24930371  0.70543509     0.14500
H632        H  0.35738928  0.19048990  0.80744946     0.14500
C633        C  0.38317379  0.16641612  0.77502040     0.36100
C634        C  0.38818684  0.27190148  0.73638872     0.36000
N635        N  0.38008616  0.14408845  0.78325886    -0.44200
N636        N  0.38907945  0.29311214  0.72746857    -0.44200
C637        C  0.40559057  0.30188907  0.85789042    -0.00600
C638        C  0.42193758  0.29596950  0.83382288    -0.12500
C639        C  0.44531503  0.29277666  0.84476964     0.01600
C640        C  0.45348820  0.29655705  0.88025762    -0.00700
C641        C  0.43837009  0.30392455  0.90419582    -0.12500
C642        C  0.41433630  0.30625350  0.89350581     0.01500
H643        H  0.41521834  0.29175323  0.80667909     0.14500
H644        H  0.44525716  0.30766827  0.93133592     0.14500
C645        C  0.39858564  0.31223083  0.91989636     0.36100
C646        C  0.45997104  0.28474195  0.81914027     0.36000
N647        N  0.38585978  0.31673155  0.94118300    -0.44200
N648        N  0.47129831  0.27808724  0.79828787    -0.44200
C649        C  0.27184103  0.25883157  0.93431079    -0.00600
C650        C  0.27786632  0.25071408  0.96664792    -0.12500
C651        C  0.25841516  0.24359407  0.99482411     0.01600
C652        C  0.23190157  0.24371458  0.99053709    -0.00700
C653        C  0.22625883  0.25273988  0.95893011    -0.12500
C654        C  0.24601074  0.26082871  0.93111376     0.01500
H655        H  0.29732683  0.24903263  0.96963676     0.14500
H656        H  0.20610578  0.25320509  0.95588694     0.14500
C657        C  0.23783648  0.26962950  0.89939746     0.36100
C658        C  0.26547012  0.23469935  0.52725178     0.36000
N659        N  0.23093875  0.27659954  0.87421397    -0.44200
N660        N  0.27132504  0.22773835  0.55321191    -0.44200
C661        C  0.24676957  0.22663256  0.73767599    -0.00600
C662        C  0.21871168  0.22227828  0.74546356    -0.12500
C663        C  0.19743499  0.21481513  0.71927672     0.01600
C664        C  0.20400072  0.21123038  0.68470960    -0.00700
C665        C  0.23171696  0.21439326  0.67746077    -0.12500
C666        C  0.25303469  0.22223382  0.70340972     0.01500
H667        H  0.21363544  0.22540502  0.77200118     0.14500
H668        H  0.23735284  0.21174206  0.65102572     0.14500
C669        C  0.28088648  0.22501988  0.69441440     0.36100
C670        C  0.16894724  0.21026116  0.72855871     0.36000
N671        N  0.30317118  0.22712923  0.68736353    -0.44200
N672        N  0.14596276  0.20629990  0.73592732    -0.44200
C673        C  0.25945725  0.16875082  0.88871929    -0.00600
C674        C  0.25758435  0.17197736  0.92496971    -0.12500
C675        C  0.25519830  0.15062025  0.94874417     0.01600
C676        C  0.25395764  0.12494217  0.93626569    -0.00700
C677        C  0.25540334  0.12182150  0.89977965    -0.12500
C678        C  0.25832930  0.14331901  0.87633047    -0.00300
H679        H  0.25993927  0.19214505  0.93491081     0.14500
H680        H  0.25436774  0.10243153  0.88917607     0.14500
C681        C  0.26090905  0.13914070  0.83947960     0.36100
C682        C  0.25516858  0.15628707  0.98561673     0.36000
N683        N  0.26299271  0.13577624  0.80997424    -0.44200
N684        N  0.25523016  0.16096852  0.01516274    -0.44200
C685        C  0.30455443  0.33267781  0.79184340    -0.00600
C686        C  0.30517829  0.33795377  0.75587012    -0.12500
C687        C  0.30648489  0.36333340  0.74330205     0.01600
C688        C  0.30735255  0.38407773  0.76719106    -0.00700
C689        C  0.30952880  0.37970389  0.80325226    -0.12500
C690        C  0.30783170  0.35417167  0.81562781     0.01500
H691        H  0.30398665  0.32182619  0.73754193     0.14500
H692        H  0.31069900  0.39542664  0.82217812     0.14500
C693        C  0.30895009  0.35019367  0.85281275     0.36100
C694        C  0.30549686  0.36657575  0.70597117     0.36000
N695        N  0.30985582  0.34693731  0.88258457    -0.44200
N696        N  0.30467419  0.36899835  0.67600920    -0.44200
O697        O  0.28061376  0.78334946  0.31376835    -0.82300
C698        C  0.35071622  0.73634964  0.29677342     0.97100
O699        O  0.33513369  0.74345672  0.27948121    -0.71400
O700        O  0.29592801  0.75845698  0.26353002    -0.75000
Al701      Al  0.33066868  0.77443725  0.29402391     1.49000
C702        C  0.26950900  0.73732032  0.26780446     0.92300
O703        O  0.26067335  0.71069129  0.36442003    -0.81200
O704        O  0.30495288  0.74798373  0.40389587    -0.74800
Al705      Al  0.27450874  0.74801531  0.33786974     1.90100
O706        O  0.29848174  0.70479646  0.35752536    -0.73800
O707        O  0.35620763  0.78334477  0.37174393    -0.73700
O708        O  0.35122257  0.73767843  0.33009207    -0.79300
O709        O  0.36939039  0.79349339  0.31706083    -0.77600
O710        O  0.31049335  0.75521287  0.33144067    -1.13700
O711        O  0.32850020  0.80751804  0.30510587    -0.72900
C712        C  0.30437709  0.80672842  0.30552359     0.97800
C713        C  0.27263261  0.69521202  0.36808525     0.94200
Al714      Al  0.32676170  0.74435515  0.36358682     1.55600
O715        O  0.26060484  0.72555539  0.29730357    -0.77500
C716        C  0.37626551  0.79518622  0.34924517     0.98400
C717        C  0.28971900  0.76033144  0.40531893     0.93300
O718        O  0.28612961  0.77092908  0.37802265    -0.82800
O719        O  0.19598057  0.68553826  0.06537297    -0.82300
C720        C  0.12658051  0.73366447  0.04594862     0.97100
O721        O  0.14235135  0.72645545  0.02921832    -0.71400
O722        O  0.18196929  0.71178131  0.01448039    -0.75000
Al723      Al  0.14658181  0.69528905  0.04397284     1.49000
C724        C  0.20847277  0.73244241  0.01967725     0.92300
O725        O  0.21545269  0.75808254  0.11600966    -0.81200
O726        O  0.17045592  0.72159654  0.15439010    -0.74800
Al727      Al  0.20179944  0.72079681  0.08957915     1.90100
O728        O  0.17828144  0.76479540  0.10756197    -0.73800
O729        O  0.11983957  0.68643656  0.12129069    -0.73700
O730        O  0.12552535  0.73216241  0.07924243    -0.79300
O731        O  0.10739441  0.67606541  0.06639047    -0.77600
O732        O  0.16611620  0.71414603  0.08188682    -1.13700
O733        O  0.14848819  0.66172141  0.05457320    -0.72900
C734        C  0.17256791  0.66237815  0.05577731     0.97800
C735        C  0.20385857  0.77395222  0.11892949     0.94200
Al736      Al  0.14948817  0.72528500  0.11338054     1.55600
O737        O  0.21702163  0.74353166  0.04949459    -0.77500
C738        C  0.10010975  0.67433677  0.09849095     0.98400
C739        C  0.18541136  0.70903022  0.15653032     0.93300
O740        O  0.18891438  0.69770597  0.12970513    -0.82800
O741        O  0.19235275  0.98039926  0.98121282    -0.82300
C742        C  0.24613121  0.59782925  0.45957832     0.97100
O743        O  0.23982133  0.57433507  0.44430670    -0.71400
O744        O  0.22025996  0.51814615  0.42931661    -0.75000
Al745      Al  0.20581580  0.53934541  0.45772761     1.49000
C746        C  0.23985083  0.51148165  0.43517215     0.92300
O747        O  0.26529134  0.53235642  0.03261957    -0.81200
O748        O  0.22896880  0.54138870  0.07013109    -0.74800
Al749      Al  0.22741834  0.50830225  0.00571951     1.90100
O750        O  0.27318609  0.57623423  0.02231883    -0.73800
O751        O  0.19566380  0.55807123  0.03436631    -0.73700
O752        O  0.24303187  0.59759000  0.49273658    -0.79300
O753        O  0.18782929  0.56083381  0.47861291    -0.77600
O754        O  0.22260381  0.53793336  0.99679915    -1.13700
O755        O  0.17237157  0.00599906  0.46495949    -0.72900
C756        C  0.17041621  0.98175437  0.47001508     0.97800
C757        C  0.28156173  0.56024544  0.03578795     0.94200
Al758      Al  0.23431255  0.56632200  0.02776674     1.55600
O759        O  0.25203483  0.01549366  0.46511119    -0.77500
C760        C  0.18454580  0.56570468  0.01058170     0.98400
C761        C  0.21523161  0.51346295  0.07260950     0.93300
O762        O  0.20475142  0.00013987  0.04435304    -0.82800
O763        O  0.29073911  0.99157277  0.23084512    -0.82300
C764        C  0.23437720  0.87246590  0.21060639     0.97100
O765        O  0.24011308  0.89569770  0.19511934    -0.71400
O766        O  0.25933220  0.95129269  0.17920313    -0.75000
Al767      Al  0.27467692  0.93079238  0.20637513     1.49000
C768        C  0.24051945  0.95870946  0.18612835     0.92300
O769        O  0.21800559  0.93872510  0.28442431    -0.81200
O770        O  0.25736469  0.93089230  0.31973975    -0.74800
Al771      Al  0.25490470  0.96282058  0.25598264     1.90100
O772        O  0.21035882  0.89422733  0.27790239    -0.73800
O773        O  0.28933969  0.91522949  0.28102966    -0.73700
O774        O  0.23930374  0.87336424  0.24344565    -0.79300
O775        O  0.29342918  0.90951939  0.22534445    -0.77600
O776        O  0.25947488  0.93302639  0.24660369    -1.13700
O777        O  0.31025541  0.96548554  0.21419745    -0.72900
C778        C  0.31061854  0.48878376  0.21960996     0.97800
C779        C  0.20246449  0.91103380  0.29017668     0.94200
Al780      Al  0.25000795  0.90547015  0.27820058     1.55600
O781        O  0.23084808  0.95640712  0.21676602    -0.77500
C782        C  0.29815669  0.90553828  0.25698542     0.98400
C783        C  0.27015458  0.95864058  0.32240760     0.93300
O784        O  0.27941023  0.97361845  0.29518606    -0.82800
O785        O  0.48125539  0.77571279  0.40232853    -0.82300
C786        C  0.10000601  0.84566966  0.37985364     0.97100
O787        O  0.07650133  0.82833301  0.36408728    -0.71400
O788        O  0.02074152  0.78819042  0.35079970    -0.75000
Al789      Al  0.04096560  0.82455943  0.37852968     1.49000
C790        C  0.01550815  0.76240327  0.35708094     0.92300
O791        O  0.03563671  0.75960061  0.45442127    -0.81200
O792        O  0.04323749  0.80609734  0.49072641    -0.74800
Al793      Al  0.01123612  0.77111895  0.42675861     1.90100
O794        O  0.08016771  0.79782802  0.44734633    -0.73800
O795        O  0.05848490  0.85432444  0.45349737    -0.73700
O796        O  0.09991818  0.84820768  0.41317125    -0.79300
O797        O  0.06213979  0.86488311  0.39815777    -0.77600
O798        O  0.04050678  0.80674702  0.41772144    -1.13700
O799        O  0.50563656  0.82269796  0.38953254    -0.72900
C800        C  0.48173695  0.79879116  0.39251445     0.97800
C801        C  0.06345011  0.77259292  0.45952005     0.94200
Al802      Al  0.06850499  0.82549691  0.44886976     1.55600
O803        O  0.01890575  0.75528124  0.38728393    -0.77500
C804        C  0.06725135  0.87334041  0.42990269     0.98400
C805        C  0.01526509  0.79014558  0.49327505     0.93300
O806        O  0.00024862  0.78388559  0.46603820    -0.82800
O807        O  0.99681587  0.69487291  0.15368793    -0.82300
C808        C  0.37715620  0.62752042  0.13329827     0.97100
O809        O  0.40053783  0.64520965  0.11751472    -0.71400
O810        O  0.45600534  0.68417680  0.10222535    -0.75000
Al811      Al  0.43594473  0.64760631  0.12923207     1.49000
C812        C  0.46273520  0.71029544  0.10930151     0.92300
O813        O  0.44314982  0.71141710  0.20709318    -0.81200
O814        O  0.43497412  0.66415522  0.24213938    -0.74800
Al815      Al  0.46748727  0.70006121  0.17891022     1.90100
O816        O  0.39832619  0.67312728  0.20049592    -0.73800
O817        O  0.42088256  0.61755865  0.20350393    -0.73700
O818        O  0.37789314  0.62289770  0.16593811    -0.79300
O819        O  0.41492617  0.60686608  0.14818827    -0.77600
O820        O  0.43767365  0.66488964  0.16924687    -1.13700
O821        O  0.47107292  0.64853691  0.13777210    -0.72900
C822        C  0.99537854  0.67171226  0.14217925     0.97800
C823        C  0.41531060  0.69840776  0.21245121     0.94200
Al824      Al  0.40998731  0.64559050  0.20068459     1.55600
O825        O  0.46084491  0.71749402  0.14009389    -0.77500
C826        C  0.41147784  0.59852717  0.18003510     0.98400
C827        C  0.46283438  0.67967427  0.24490458     0.93300
O828        O  0.47806070  0.68625922  0.21776804    -0.82800
C829        C  0.00237141  0.73925025  0.33027163    -0.00600
C830        C  0.02050211  0.73685527  0.30564848    -0.12500
C831        C  0.00848774  0.71516948  0.27970719     0.01600
C832        C  0.47744375  0.69554128  0.27782648    -0.00700
C833        C  0.45982163  0.69657190  0.30451053    -0.12500
C834        C  0.47187069  0.71816594  0.33044304     0.01500
H835        H  0.04408654  0.75223787  0.30640551     0.14500
H836        H  0.43622802  0.68164688  0.30399686     0.14500
C837        C  0.45200400  0.71896909  0.35568833     0.36100
C838        C  0.02863952  0.71439376  0.25484916     0.36000
N839        N  0.43547819  0.71908064  0.37542176    -0.44200
N840        N  0.04479791  0.71389790  0.23485401    -0.44200
C841        C  0.47523031  0.73330325  0.08205095    -0.00600
C842        C  0.45784038  0.73132646  0.05363815    -0.12500
C843        C  0.46954212  0.75161978  0.02620588     0.01600
C844        C  0.99999264  0.77406957  0.02610066    -0.00700
C845        C  0.01681714  0.77691549  0.05582163    -0.12500
C846        C  0.00465110  0.75705061  0.08376439     0.01500
H847        H  0.43503224  0.71359167  0.05269478     0.14500
H848        H  0.03991691  0.79384162  0.05662400     0.14500
C849        C  0.02342020  0.76058601  0.11300784     0.36100
C850        C  0.44959785  0.74770472  0.99808824     0.36000
N851        N  0.03862380  0.76364819  0.13636748    -0.44200
N852        N  0.43349497  0.74446793  0.47571266    -0.44200
C853        C  0.12666417  0.86468055  0.35827715    -0.00600
C854        C  0.15357206  0.86772678  0.36750164    -0.12500
C855        C  0.17822703  0.88261441  0.34560909     0.01600
C856        C  0.17731611  0.89768961  0.31530341    -0.00700
C857        C  0.15065381  0.89568325  0.30678812    -0.12500
C858        C  0.12521509  0.87846956  0.32706643     0.01500
H859        H  0.15476989  0.85658200  0.39061357     0.14500
H860        H  0.14918436  0.90589601  0.28297323     0.14500
C861        C  0.09772508  0.87434487  0.31410124     0.36100
C862        C  0.20323727  0.87981897  0.35399737     0.36000
N863        N  0.07576240  0.87082110  0.30309823    -0.44200
N864        N  0.22260536  0.87661699  0.36139213    -0.44200
C865        C  0.39054031  0.56763355  0.19072066    -0.00600
C866        C  0.37384491  0.54668832  0.16510027    -0.12500
C867        C  0.34817799  0.52037500  0.17417901     0.01600
C868        C  0.33806481  0.51542035  0.20913055    -0.00700
C869        C  0.35565378  0.53502170  0.23496094    -0.12500
C870        C  0.38213379  0.56040502  0.22642663     0.01500
H871        H  0.38005048  0.55136413  0.13777716     0.14500
H872        H  0.34878645  0.53024696  0.26207776     0.14500
C873        C  0.39949931  0.57875896  0.25521535     0.36100
C874        C  0.33233523  0.49904921  0.14714222     0.36000
N875        N  0.41324273  0.59335417  0.27840901    -0.44200
N876        N  0.31997414  0.48174692  0.12555587    -0.44200
C877        C  0.23131948  0.97212586  0.15878162    -0.00600
C878        C  0.21938133  0.95687536  0.12781696    -0.12500
C879        C  0.21219399  0.96937985  0.10028659     0.01600
C880        C  0.21777175  0.99866752  0.10289692    -0.00700
C881        C  0.22853841  0.51255141  0.13579953    -0.12500
C882        C  0.23561468  0.00055312  0.16246930     0.01500
H883        H  0.21602437  0.93507292  0.12493581     0.14500
H884        H  0.23405374  0.53511044  0.13819613     0.14500
C885        C  0.24818994  0.51634356  0.19484561     0.36100
C886        C  0.20083871  0.95159399  0.06919109     0.36000
N887        N  0.25891116  0.52998460  0.21982319    -0.44200
N888        N  0.19195254  0.93700118  0.04452436    -0.44200
C889        C  0.26886250  0.97347797  0.35516599    -0.00600
C890        C  0.24877471  0.95644464  0.38139982    -0.12500
C891        C  0.23221349  0.46659333  0.40318988     0.01600
C892        C  0.25144974  0.99965931  0.40750274    -0.00700
C893        C  0.27315416  0.01712627  0.38310158    -0.12500
C894        C  0.28225187  0.00448393  0.35743327     0.01500
H895        H  0.23865678  0.93291781  0.38084552     0.14500
H896        H  0.28302133  0.04072010  0.38408169     0.14500
C897        C  0.30536621  0.02407506  0.33385271     0.36100
C898        C  0.20613563  0.44769735  0.42333412     0.36000
N899        N  0.32400703  0.03997430  0.31521251    -0.44200
N900        N  0.18521240  0.43162193  0.43891595    -0.44200
C901        C  0.30778385  0.57553631  0.05954825    -0.00600
C902        C  0.32482787  0.60635699  0.05703311    -0.12500
C903        C  0.34534402  0.62350851  0.08258665     0.01600
C904        C  0.35044269  0.61021504  0.11138148    -0.00700
C905        C  0.33384500  0.57944696  0.11416957    -0.12500
C906        C  0.31262919  0.56212020  0.08864207     0.01500
H907        H  0.32145606  0.61743335  0.03550340     0.14500
H908        H  0.33806004  0.56892718  0.13557519     0.14500
C909        C  0.29619705  0.53079368  0.09307787     0.36100
C910        C  0.36045978  0.65501538  0.07897748     0.36000
N911        N  0.28390920  0.00630093  0.09436306    -0.44200
N912        N  0.37242993  0.68022388  0.07619547    -0.44200
C913        C  0.14243694  0.95511154  0.46064053    -0.00600
C914        C  0.13307181  0.95108919  0.42570148    -0.12500
C915        C  0.10663681  0.92611205  0.41527686     0.01600
C916        C  0.08929432  0.90420782  0.44002270    -0.00700
C917        C  0.09755860  0.90994842  0.47561491    -0.12500
C918        C  0.12372588  0.93513263  0.48597389     0.01500
H919        H  0.14666774  0.96745133  0.40639502     0.14500
H920        H  0.08420852  0.89411834  0.49549338     0.14500
C921        C  0.13038204  0.94061099  0.02275819     0.36100
C922        C  0.09780420  0.92400557  0.37928129     0.36000
N923        N  0.13547538  0.94526000  0.05224811    -0.44200
N924        N  0.09067688  0.92301470  0.35050921    -0.44200
C925        C  0.02179097  0.67151273  0.13092363    -0.00600
C926        C  0.03713409  0.66465945  0.15509944    -0.12500
C927        C  0.06086068  0.66176900  0.14439686     0.01600
C928        C  0.06972038  0.66605214  0.10880530    -0.00700
C929        C  0.05281765  0.67087826  0.08442413    -0.12500
C930        C  0.02906948  0.67361299  0.09518876     0.01500
H931        H  0.03052277  0.66151136  0.18234084     0.14500
H932        H  0.05930137  0.67451766  0.05715545     0.14500
C933        C  0.01288243  0.67928757  0.06913787     0.36100
C934        C  0.07599536  0.65487646  0.17061891     0.36000
N935        N  0.99992735  0.68377221  0.04819058    -0.44200
N936        N  0.08806099  0.64934401  0.19169352    -0.44200
C937        C  0.07676418  0.76080378  0.48376858    -0.00600
C938        C  0.07507888  0.73425148  0.47647388    -0.12500
C939        C  0.09091077  0.72493481  0.99666982     0.01600
C940        C  0.10786555  0.74173928  0.02575655    -0.00700
C941        C  0.10810909  0.76731601  0.53423967    -0.12500
C942        C  0.09344816  0.77734199  0.51320666     0.01500
H943        H  0.06253005  0.72149249  0.45403044     0.14500
H944        H  0.12100681  0.78030760  0.05639666     0.14500
C945        C  0.09686952  0.80523727  0.52230804     0.36100
C946        C  0.08953494  0.69811161  0.98665882     0.36000
N947        N  0.10035594  0.82779694  0.53020604    -0.44200
N948        N  0.08844501  0.67667696  0.97832388    -0.44200
C949        C  0.21693463  0.80082952  0.14070846    -0.00600
C950        C  0.22111935  0.79848580  0.17661557    -0.12500
C951        C  0.22519063  0.82050784  0.20044708     0.01600
C952        C  0.22595431  0.84604235  0.18831863    -0.00700
C953        C  0.22203720  0.84821181  0.15216717    -0.12500
C954        C  0.21729184  0.82600551  0.12872352     0.01500
H955        H  0.21944227  0.77857130  0.18640957     0.14500
H956        H  0.22256221  0.86743293  0.14183571     0.14500
C957        C  0.21221235  0.82931895  0.09237339     0.36100
C958        C  0.22767147  0.81578665  0.23709482     0.36000
N959        N  0.20804407  0.83199801  0.06330655    -0.44200
N960        N  0.22944193  0.81180948  0.26648502    -0.44200
C961        C  0.17420440  0.58612478  0.02036669    -0.00600
C962        C  0.17903153  0.60837072  0.99671433    -0.12500
C963        C  0.17881865  0.63340650  0.00790311     0.01600
C964        C  0.17329695  0.63642674  0.04332260    -0.00700
C965        C  0.16618748  0.61333913  0.06639650    -0.12500
C966        C  0.16662945  0.58839759  0.05535192     0.01500
H967        H  0.18518000  0.60733062  0.46995063     0.14500
H968        H  0.16080020  0.61504055  0.09331299     0.14500
C969        C  0.15990113  0.56578219  0.08080187     0.36100
C970        C  0.18550369  0.65616541  0.48269188     0.36000
N971        N  0.15461866  0.54769642  0.10121581    -0.44200
N972        N  0.19092311  0.67411592  0.46203383    -0.44200
C973        C  0.40213442  0.71027338  0.23659887    -0.00600
C974        C  0.40348672  0.73655400  0.22876232    -0.12500
C975        C  0.38719006  0.74563595  0.24839823     0.01600
C976        C  0.36998540  0.72872308  0.27728750    -0.00700
C977        C  0.37017543  0.70350238  0.28642546    -0.12500
C978        C  0.38535179  0.69374115  0.26599040     0.01500
H979        H  0.41609839  0.74923834  0.20629744     0.14500
H980        H  0.35711207  0.69052208  0.30850965     0.14500
C981        C  0.38217601  0.66602724  0.27550023     0.36100
C982        C  0.38849184  0.77236144  0.23810219     0.36000
N983        N  0.37895652  0.64366088  0.28381950    -0.44200
N984        N  0.38965596  0.79378277  0.22956440    -0.44200
C985        C  0.40639879  0.80279340  0.35972450    -0.00600
C986        C  0.42288013  0.79727627  0.33540086    -0.12500
C987        C  0.44658795  0.79449298  0.34603463     0.01600
C988        C  0.45483157  0.79809249  0.38151659    -0.00700
C989        C  0.43969716  0.80529188  0.40564471    -0.12500
C990        C  0.41545285  0.80738062  0.39521150     0.01500
H991        H  0.41601760  0.79302716  0.30829499     0.14500
H992        H  0.44669982  0.80903855  0.43274799     0.14500
C993        C  0.39983006  0.81341052  0.42170135     0.36100
C994        C  0.46145074  0.78697975  0.32008835     0.36000
N995        N  0.38723770  0.81802001  0.44305577    -0.44200
N996        N  0.47294198  0.78076494  0.29895624    -0.44200
C997        C  0.27147470  0.75779040  0.43633039    -0.00600
C998        C  0.27622672  0.74778851  0.46810257    -0.12500
C999        C  0.25628932  0.74016870  0.49584563     0.01600
C1000       C  0.23067659  0.74196284  0.49181461    -0.00700
C1001       C  0.22618356  0.75264461  0.46077393    -0.12500
C1002       C  0.24632051  0.76098043  0.43330439     0.01500
H1003       H  0.29502370  0.74498227  0.47092890     0.14500
H1004       H  0.20669046  0.75432062  0.45793284     0.14500
C1005       C  0.23923360  0.77134301  0.40205021     0.36100
C1006       C  0.26189908  0.72913394  0.02752926     0.36000
N1007       N  0.23319995  0.77949571  0.37717536    -0.44200
N1008       N  0.26655487  0.72036327  0.05288249    -0.44200
C1009       C  0.24759067  0.72829886  0.23957515    -0.00600
C1010       C  0.22009817  0.72530271  0.24727378    -0.12500
C1011       C  0.19887635  0.71823636  0.22113864     0.01600
C1012       C  0.20476469  0.71325205  0.18680502    -0.00700
C1013       C  0.23208682  0.71550636  0.17960283    -0.12500
C1014       C  0.25351624  0.72336870  0.20539434     0.01500
H1015       H  0.21550244  0.72928647  0.27366609     0.14500
H1016       H  0.23738001  0.71219386  0.15327267     0.14500
C1017       C  0.28123758  0.72592198  0.19624679     0.36100
C1018       C  0.17133096  0.71601744  0.23021178     0.36000
N1019       N  0.30347330  0.72800021  0.18899812    -0.44200
N1020       N  0.14919141  0.71415682  0.23743968    -0.44200
C1021       C  0.25966936  0.66827423  0.38976051    -0.00600
C1022       C  0.25642582  0.67075348  0.42588827    -0.12500
C1023       C  0.25348955  0.64907388  0.44954678     0.01600
C1024       C  0.25305250  0.62377020  0.43709670    -0.00700
C1025       C  0.25579435  0.62132763  0.40071939    -0.12500
C1026       C  0.25928912  0.64317089  0.37738759    -0.00300
H1027       H  0.25804954  0.69057437  0.43592270     0.14500
H1028       H  0.25535100  0.60221315  0.39015267     0.14500
C1029       C  0.26302179  0.63959299  0.34067473     0.36100
C1030       C  0.25191910  0.65394684  0.48636464     0.36000
N1031       N  0.26599542  0.63669367  0.31127262    -0.44200
N1032       N  0.25075499  0.65788093  0.51591289    -0.44200
C1033       C  0.30427641  0.83283853  0.29325421    -0.00600
C1034       C  0.30311636  0.83679797  0.25717437    -0.12500
C1035       C  0.30425584  0.86194598  0.24389799     0.01600
C1036       C  0.30671261  0.88382088  0.26712744    -0.00700
C1037       C  0.31017771  0.88051531  0.30315992    -0.12500
C1038       C  0.30873605  0.85525873  0.31625335     0.01500
H1039       H  0.30080599  0.81989699  0.23934273     0.14500
H1040       H  0.31233624  0.89698088  0.32157932     0.14500
C1041       C  0.31114627  0.85241657  0.35344758     0.36100
C1042       C  0.30143560  0.86380931  0.20661325     0.36000
N1043       N  0.31300908  0.84998198  0.38323142    -0.44200
N1044       N  0.29909691  0.86513623  0.17670679    -0.44200
O1045       O  0.28059815  0.78333809  0.81376492    -0.82300
C1046       C  0.35072512  0.73636708  0.79675877     0.97100
O1047       O  0.33513753  0.74346915  0.77946914    -0.71400
O1048       O  0.29591750  0.75845155  0.76352921    -0.75000
Al1049     Al  0.33066307  0.77444267  0.79401614     1.49000
C1050       C  0.26950201  0.73730837  0.76780870     0.92300
O1051       O  0.26068159  0.71068888  0.86442174    -0.81200
O1052       O  0.30495783  0.74798730  0.90388967    -0.74800
Al1053     Al  0.27450651  0.74800974  0.83786895     1.90100
O1054       O  0.29849444  0.70480377  0.85751313    -0.73800
O1055       O  0.35620775  0.78335445  0.87173186    -0.73700
O1056       O  0.35123128  0.73769355  0.83007763    -0.79300
O1057       O  0.36938870  0.79350670  0.81704913    -0.77600
O1058       O  0.31049326  0.75521553  0.83143394    -1.13700
O1059       O  0.32848436  0.80751781  0.80510094    -0.72900
C1060       C  0.30435758  0.80672100  0.80552010     0.97800
C1061       C  0.27264558  0.69521318  0.86807755     0.94200
Al1062     Al  0.32676806  0.74436330  0.86357642     1.55600
O1063       O  0.26060339  0.72554509  0.79730906    -0.77500
C1064       C  0.37626530  0.79519644  0.84923296     0.98400
C1065       C  0.28972281  0.76033414  0.90531294     0.93300
O1066       O  0.28613022  0.77092825  0.87801609    -0.82800
O1067       O  0.19599500  0.68554323  0.56538468    -0.82300
C1068       C  0.12657934  0.73364721  0.54595634     0.97100
O1069       O  0.14234914  0.72643630  0.52922719    -0.71400
O1070       O  0.18197488  0.71177296  0.51449706    -0.75000
Al1071     Al  0.14658613  0.69527637  0.54398745     1.49000
C1072       C  0.20847587  0.73244069  0.51969188     0.92300
O1073       O  0.21544782  0.75808192  0.61602858    -0.81200
O1074       O  0.17045122  0.72158410  0.65440378    -0.74800
Al1075     Al  0.20180308  0.72079766  0.58959284     1.90100
O1076       O  0.17827077  0.76478468  0.60757894    -0.73800
O1077       O  0.11983881  0.68642041  0.62130117    -0.73700
O1078       O  0.12552211  0.73214631  0.57925037    -0.79300
O1079       O  0.10739721  0.67604964  0.56640063    -0.77600
O1080       O  0.16611755  0.71413905  0.58189975    -1.13700
O1081       O  0.14850067  0.66171422  0.55459731    -0.72900
C1082       C  0.17258426  0.66237823  0.55579551     0.97800
C1083       C  0.20384828  0.77394710  0.61894802     0.94200
Al1084     Al  0.14948349  0.72527168  0.61339307     1.55600
O1085       O  0.21702310  0.74353458  0.54950811    -0.77500
C1086       C  0.10011048  0.67432253  0.59849978     0.98400
C1087       C  0.18540788  0.70901881  0.65654032     0.93300
O1088       O  0.18891662  0.69770191  0.62971270    -0.82800
O1089       O  0.19236272  0.98039008  0.48117838    -0.82300
C1090       C  0.24615917  0.59784427  0.95958390     0.97100
O1091       O  0.23984849  0.57434939  0.94431435    -0.71400
O1092       O  0.22027826  0.51816101  0.92932043    -0.75000
Al1093     Al  0.20583639  0.53936264  0.95772903     1.49000
C1094       C  0.23985848  0.51148313  0.93518090     0.92300
O1095       O  0.26528679  0.53235843  0.53261678    -0.81200
O1096       O  0.22894613  0.54137051  0.57012608    -0.74800
Al1097     Al  0.22741754  0.50829826  0.50570943     1.90100
O1098       O  0.27316830  0.57623247  0.52232635    -0.73800
O1099       O  0.19563594  0.55804142  0.53436062    -0.73700
O1100       O  0.24305797  0.59760607  0.99274088    -0.79300
O1101       O  0.18785253  0.56085332  0.97861555    -0.77600
O1102       O  0.22259097  0.53792239  0.49679480    -1.13700
O1103       O  0.17237923  0.00602038  0.96497848    -0.72900
C1104       C  0.17041406  0.98177197  0.97003879     0.97800
C1105       C  0.28154899  0.56024759  0.53579487     0.94200
Al1106     Al  0.23428965  0.56630650  0.52776503     1.55600
O1107       O  0.25202211  0.01547870  0.96513815    -0.77500
C1108       C  0.18452427  0.56568408  0.51057956     0.98400
C1109       C  0.21521618  0.51344465  0.57260044     0.93300
O1110       O  0.20474898  0.00011955  0.54431658    -0.82800
O1111       O  0.29073133  0.99158364  0.73083026    -0.82300
C1112       C  0.23436578  0.87247556  0.71060601     0.97100
O1113       O  0.24010960  0.89570761  0.69511332    -0.71400
O1114       O  0.25933158  0.95130115  0.67919560    -0.75000
Al1115     Al  0.27467303  0.93080183  0.70637401     1.49000
C1116       C  0.24051244  0.95871099  0.68611422     0.92300
O1117       O  0.21799669  0.93874370  0.78441468    -0.81200
O1118       O  0.25735784  0.93091365  0.81973335    -0.74800
Al1119     Al  0.25489556  0.96283379  0.75596970     1.90100
O1120       O  0.21034877  0.89424612  0.77789690    -0.73800
O1121       O  0.28932655  0.91523778  0.78103207    -0.73700
O1122       O  0.23928842  0.87337606  0.74344669    -0.79300
O1123       O  0.29341910  0.90952454  0.72534931    -0.77600
O1124       O  0.25946756  0.93303896  0.74659913    -1.13700
O1125       O  0.31025198  0.96549563  0.71420097    -0.72900
C1126       C  0.31060811  0.48877832  0.71960564     0.97800
C1127       C  0.20245602  0.91105327  0.79017193     0.94200
Al1128     Al  0.24999683  0.90548512  0.77819851     1.55600
O1129       O  0.23083906  0.95641043  0.71675048    -0.77500
C1130       C  0.29814013  0.90554016  0.75699153     0.98400
C1131       C  0.27014631  0.95866231  0.82239909     0.93300
O1132       O  0.27939883  0.97363920  0.79517610    -0.82800
O1133       O  0.48126382  0.77573084  0.90231407    -0.82300
C1134       C  0.10000527  0.84568181  0.87986227     0.97100
O1135       O  0.07650087  0.82834247  0.86409752    -0.71400
O1136       O  0.02074063  0.78820711  0.85080823    -0.75000
Al1137     Al  0.04096683  0.82457773  0.87853181     1.49000
C1138       C  0.01549830  0.76241801  0.85709580     0.92300
O1139       O  0.03561987  0.75962097  0.95443941    -0.81200
O1140       O  0.04322782  0.80612296  0.99073745    -0.74800
Al1141     Al  0.01122485  0.77114364  0.92677087     1.90100
O1142       O  0.08015527  0.79784255  0.94736479    -0.73800
O1143       O  0.05848741  0.85435198  0.95349602    -0.73700
O1144       O  0.09991665  0.84822266  0.91317964    -0.79300
O1145       O  0.06214518  0.86490419  0.89815350    -0.77600
O1146       O  0.04050140  0.80676802  0.91772903    -1.13700
O1147       O  0.50564614  0.82271636  0.88951754    -0.72900
C1148       C  0.48174614  0.79880863  0.89249503     0.97800
C1149       C  0.06343319  0.77260778  0.95953745     0.94200
Al1150     Al  0.06849963  0.82551753  0.94887869     1.55600
O1151       O  0.01888806  0.75529546  0.88730207    -0.77500
C1152       C  0.06725536  0.87336527  0.92989722     0.98400
C1153       C  0.01525482  0.79017413  0.99328429     0.93300
O1154       O  0.00024141  0.78392096  0.96604570    -0.82800
O1155       O  0.99682303  0.69487936  0.65369681    -0.82300
C1156       C  0.37715295  0.62752027  0.63330315     0.97100
O1157       O  0.40053481  0.64520038  0.61751262    -0.71400
O1158       O  0.45600533  0.68416638  0.60222194    -0.75000
Al1159     Al  0.43594264  0.64759983  0.62923757     1.49000
C1160       C  0.46273186  0.71028517  0.60929241     0.92300
O1161       O  0.44315865  0.71142856  0.70708257    -0.81200
O1162       O  0.43498603  0.66417408  0.74213800    -0.74800
Al1163     Al  0.46748798  0.70006465  0.67889823     1.90100
O1164       O  0.39833255  0.67314180  0.70049471    -0.73800
O1165       O  0.42087994  0.61756556  0.70351641    -0.73700
O1166       O  0.37789175  0.62290598  0.66594578    -0.79300
O1167       O  0.41492156  0.60686427  0.64820367    -0.77600
O1168       O  0.43767266  0.66489186  0.66924561    -1.13700
O1169       O  0.47107154  0.64853118  0.63778780    -0.72900
C1170       C  0.99539172  0.67171672  0.64220701     0.97800
C1171       C  0.41532054  0.69842388  0.71244346     0.94200
Al1172     Al  0.40998990  0.64560145  0.70068898     1.55600
O1173       O  0.46083652  0.71748704  0.64008108    -0.77500
C1174       C  0.41147117  0.59853019  0.68005219     0.98400
C1175       C  0.46284751  0.67969328  0.74489357     0.93300
O1176       O  0.47806630  0.68626642  0.71775274    -0.82800
C1177       C  0.00236511  0.73926604  0.83028609    -0.00600
C1178       C  0.02049799  0.73688529  0.80565419    -0.12500
C1179       C  0.00848803  0.71520613  0.77970591     0.01600
C1180       C  0.47746671  0.69557347  0.77780574    -0.00700
C1181       C  0.45984786  0.69658127  0.80451021    -0.12500
C1182       C  0.47189168  0.71817682  0.83044074     0.01500
H1183       H  0.04408078  0.75227649  0.80640764     0.14500
H1184       H  0.43625787  0.68163690  0.80401397     0.14500
C1185       C  0.45202166  0.71897156  0.85568812     0.36100
C1186       C  0.02864318  0.71445596  0.75483108     0.36000
N1187       N  0.43549248  0.71907931  0.87541933    -0.44200
N1188       N  0.04480446  0.71398293  0.73482109    -0.44200
C1189       C  0.47523545  0.73329234  0.58204429    -0.00600
C1190       C  0.45783555  0.73135078  0.55365922    -0.12500
C1191       C  0.46954057  0.75165290  0.52623628     0.01600
C1192       C  0.00000776  0.77404642  0.52609379    -0.00700
C1193       C  0.01684056  0.77687711  0.55580057    -0.12500
C1194       C  0.00467494  0.75701207  0.58374200     0.01500
H1195       H  0.43501648  0.71363828  0.55273112     0.14500
H1196       H  0.03994586  0.79378916  0.55659075     0.14500
C1197       C  0.02345258  0.76052953  0.61296878     0.36100
C1198       C  0.44958766  0.74778162  0.49814833     0.36000
N1199       N  0.03866526  0.76357906  0.63631335    -0.44200
N1200       N  0.43351190  0.74435526  0.97562915    -0.44200
C1201       C  0.12666209  0.86469481  0.85828308    -0.00600
C1202       C  0.15357205  0.86774374  0.86750283    -0.12500
C1203       C  0.17822513  0.88263377  0.84560741     0.01600
C1204       C  0.17731108  0.89771053  0.81530462    -0.00700
C1205       C  0.15064682  0.89570190  0.80679461    -0.12500
C1206       C  0.12520937  0.87848310  0.82707331     0.01500
H1207       H  0.15477270  0.85659807  0.89061244     0.14500
H1208       H  0.14917413  0.90591428  0.78298133     0.14500
C1209       C  0.09771634  0.87434946  0.81410634     0.36100
C1210       C  0.20323543  0.87983619  0.85398747     0.36000
N1211       N  0.07575155  0.87081922  0.80310193    -0.44200
N1212       N  0.22260247  0.87663014  0.86137406    -0.44200
C1213       C  0.39052913  0.56763856  0.69074116    -0.00600
C1214       C  0.37384978  0.54668795  0.66511855    -0.12500
C1215       C  0.34818233  0.52037225  0.67418867     0.01600
C1216       C  0.33805597  0.51541654  0.70913448    -0.00700
C1217       C  0.35562799  0.53502460  0.73496851    -0.12500
C1218       C  0.38210457  0.56041482  0.72644377     0.01500
H1219       H  0.38006715  0.55136210  0.63779815     0.14500
H1220       H  0.34874780  0.53025140  0.76208122     0.14500
C1221       C  0.39944257  0.57878202  0.75523857     0.36100
C1222       C  0.33234790  0.49904901  0.64714662     0.36000
N1223       N  0.41316175  0.59338777  0.77843798    -0.44200
N1224       N  0.31999174  0.48175056  0.62555498    -0.44200
C1225       C  0.23130530  0.97211466  0.65875969    -0.00600
C1226       C  0.21942161  0.95687836  0.62777326    -0.12500
C1227       C  0.21223408  0.96937556  0.60023545     0.01600
C1228       C  0.21776059  0.99864427  0.60286031    -0.00700
C1229       C  0.22851302  0.51253344  0.63579380    -0.12500
C1230       C  0.23554392  0.00051879  0.66246062     0.01500
H1231       H  0.21610698  0.93509328  0.62488207     0.14500
H1232       H  0.23402453  0.53509125  0.63818979     0.14500
C1233       C  0.24815643  0.51632690  0.69484440     0.36100
C1234       C  0.20093319  0.95160460  0.56912135     0.36000
N1235       N  0.25887010  0.52996713  0.71982460    -0.44200
N1236       N  0.19208903  0.93702189  0.54444223    -0.44200
C1237       C  0.26885863  0.97350046  0.85516007    -0.00600
C1238       C  0.24879129  0.95646399  0.88140971    -0.12500
C1239       C  0.23223284  0.46659450  0.90321060     0.01600
C1240       C  0.25145110  0.99966991  0.90751924    -0.00700
C1241       C  0.27313457  0.01714113  0.88309953    -0.12500
C1242       C  0.28223125  0.00450534  0.85742122     0.01500
H1243       H  0.23868638  0.93293859  0.88086009     0.14500
H1244       H  0.28298698  0.04073305  0.88407401     0.14500
C1245       C  0.30532768  0.02410281  0.83382562     0.36100
C1246       C  0.20616002  0.44769895  0.92336310     0.36000
N1247       N  0.32395465  0.04000823  0.81517468    -0.44200
N1248       N  0.18523907  0.43162843  0.93895178    -0.44200
C1249       C  0.30776784  0.57554107  0.55956176    -0.00600
C1250       C  0.32480609  0.60636291  0.55705598    -0.12500
C1251       C  0.34532695  0.62351238  0.58260751     0.01600
C1252       C  0.35043410  0.61021629  0.61139269    -0.00700
C1253       C  0.33383846  0.57944790  0.61417479    -0.12500
C1254       C  0.31261856  0.56212290  0.58864980     0.01500
H1255       H  0.32142842  0.61744189  0.53553274     0.14500
H1256       H  0.33805898  0.56892560  0.63557510     0.14500
C1257       C  0.29618704  0.53079614  0.59308379     0.36100
C1258       C  0.36043977  0.65501972  0.57900723     0.36000
N1259       N  0.28392279  0.00630981  0.59435506    -0.44200
N1260       N  0.37240751  0.68022870  0.57623316    -0.44200
C1261       C  0.14243368  0.95513426  0.96065412    -0.00600
C1262       C  0.13309103  0.95110639  0.92570626    -0.12500
C1263       C  0.10665815  0.92613197  0.91527049     0.01600
C1264       C  0.08929541  0.90423468  0.94001480    -0.00700
C1265       C  0.09753684  0.90998309  0.97561269    -0.12500
C1266       C  0.12370129  0.93516582  0.98598224     0.01500
H1267       H  0.14670313  0.96746242  0.90640163     0.14500
H1268       H  0.08417027  0.89415967  0.99548916     0.14500
C1269       C  0.13043072  0.94056856  0.52274615     0.36100
C1270       C  0.09784919  0.92402414  0.87926533     0.36000
N1271       N  0.13554315  0.94520977  0.55223377    -0.44200
N1272       N  0.09074416  0.92303847  0.85048446    -0.44200
C1273       C  0.02180649  0.67152288  0.63094808    -0.00600
C1274       C  0.03712604  0.66462509  0.65510760    -0.12500
C1275       C  0.06084860  0.66173132  0.64439457     0.01600
C1276       C  0.06972380  0.66604939  0.60880902    -0.00700
C1277       C  0.05284628  0.67092401  0.58444156    -0.12500
C1278       C  0.02910588  0.67366767  0.59521646     0.01500
H1279       H  0.03049995  0.66144568  0.68234430     0.14500
H1280       H  0.05934444  0.67459312  0.55717888     0.14500
C1281       C  0.01294537  0.67939092  0.56917885     0.36100
C1282       C  0.07596152  0.65479506  0.67059873     0.36000
N1283       N  0.00001310  0.68391442  0.54823969    -0.44200
N1284       N  0.08800887  0.64922636  0.69165909    -0.44200
C1285       C  0.07674394  0.76081257  0.98378249    -0.00600
C1286       C  0.07508522  0.73427656  0.97646073    -0.12500
C1287       C  0.09089695  0.72490643  0.49669148     0.01600
C1288       C  0.10786869  0.74172403  0.52576142    -0.00700
C1289       C  0.10807858  0.76731343  0.03426079    -0.12500
C1290       C  0.09340962  0.77733681  0.01323714     0.01500
H1291       H  0.06255209  0.72152936  0.95400310     0.14500
H1292       H  0.12105192  0.78032038  0.55636239     0.14500
C1293       C  0.09680738  0.80521805  0.02236171     0.36100
C1294       C  0.08949651  0.69806640  0.48670670     0.36000
N1295       N  0.10027545  0.82776709  0.03027742    -0.44200
N1296       N  0.08838629  0.67661775  0.47839314    -0.44200
C1297       C  0.21691938  0.80082735  0.64072382    -0.00600
C1298       C  0.22110663  0.79849024  0.67663201    -0.12500
C1299       C  0.22517816  0.82051612  0.70045815     0.01600
C1300       C  0.22593789  0.84604728  0.68832413    -0.00700
C1301       C  0.22201446  0.84820880  0.65217273    -0.12500
C1302       C  0.21727075  0.82599962  0.62873378     0.01500
H1303       H  0.21943288  0.77857845  0.68643103     0.14500
H1304       H  0.22253550  0.86742723  0.64183736     0.14500
C1305       C  0.21219136  0.82930824  0.59238207     0.36100
C1306       C  0.22766457  0.81580344  0.73710709     0.36000
N1307       N  0.20802454  0.83198428  0.56331371    -0.44200
N1308       N  0.22943986  0.81183520  0.76649894    -0.44200
C1309       C  0.17420261  0.58611861  0.52036918    -0.00600
C1310       C  0.17905914  0.60838055  0.49672721    -0.12500
C1311       C  0.17885821  0.63342065  0.50792280     0.01600
C1312       C  0.17331885  0.63643008  0.54333899    -0.00700
C1313       C  0.16618765  0.61333097  0.56640340    -0.12500
C1314       C  0.16662014  0.58838574  0.55535259     0.01500
H1315       H  0.18514291  0.60731508  0.96993476     0.14500
H1316       H  0.16078960  0.61502552  0.59331724     0.14500
C1317       C  0.15987541  0.56576055  0.58079455     0.36100
C1318       C  0.18544381  0.65614118  0.98266474     0.36000
N1319       N  0.15458139  0.54766701  0.60120158    -0.44200
N1320       N  0.19084836  0.67408570  0.96200342    -0.44200
C1321       C  0.40215049  0.71029677  0.73658893    -0.00600
C1322       C  0.40348074  0.73656347  0.72872970    -0.12500
C1323       C  0.38718248  0.74564501  0.74836343     0.01600
C1324       C  0.36999735  0.72874527  0.77727116    -0.00700
C1325       C  0.37021198  0.70354155  0.78643112    -0.12500
C1326       C  0.38538940  0.69377997  0.76599949     0.01500
H1327       H  0.41607593  0.74923595  0.70624963     0.14500
H1328       H  0.35716466  0.69057199  0.80853008     0.14500
C1329       C  0.38223118  0.66607760  0.77552969     0.36100
C1330       C  0.38846386  0.77235678  0.73804724     0.36000
N1331       N  0.37902332  0.64371959  0.78386670    -0.44200
N1332       N  0.38961206  0.79376709  0.72949279    -0.44200
C1333       C  0.40639855  0.80279993  0.85971108    -0.00600
C1334       C  0.42288186  0.79728786  0.83538407    -0.12500
C1335       C  0.44659315  0.79450795  0.84601452     0.01600
C1336       C  0.45483968  0.79810848  0.88149588    -0.00700
C1337       C  0.43970041  0.80529819  0.90562751    -0.12500
C1338       C  0.41545125  0.80737999  0.89519907     0.01500
H1339       H  0.41601802  0.79303953  0.80827827     0.14500
H1340       H  0.44670167  0.80904016  0.93273148     0.14500
C1341       C  0.39981898  0.81338888  0.92169754     0.36100
C1342       C  0.46145339  0.78699260  0.82006699     0.36000
N1343       N  0.38721794  0.81797861  0.94306007    -0.44200
N1344       N  0.47294152  0.78077453  0.79893430    -0.44200
C1345       C  0.27147922  0.75779544  0.93632401    -0.00600
C1346       C  0.27622691  0.74778948  0.96809538    -0.12500
C1347       C  0.25628818  0.74017106  0.99583666     0.01600
C1348       C  0.23067464  0.74196344  0.99180135    -0.00700
C1349       C  0.22618701  0.75265120  0.96076217    -0.12500
C1350       C  0.24632941  0.76099292  0.93329778     0.01500
H1351       H  0.29502248  0.74498170  0.97092344     0.14500
H1352       H  0.20669661  0.75433125  0.95792006     0.14500
C1353       C  0.23925571  0.77137498  0.90205021     0.36100
C1354       C  0.26189713  0.72912262  0.52753275     0.36000
N1355       N  0.23323423  0.77954489  0.87718083    -0.44200
N1356       N  0.26654916  0.72034249  0.55288055    -0.44200
C1357       C  0.24758034  0.72827663  0.73958357    -0.00600
C1358       C  0.22007709  0.72525368  0.74728909    -0.12500
C1359       C  0.19885530  0.71818675  0.72115415     0.01600
C1360       C  0.20475799  0.71323416  0.68681383    -0.00700
C1361       C  0.23208809  0.71550821  0.67960625    -0.12500
C1362       C  0.25351467  0.72336595  0.70539868     0.01500
H1363       H  0.21547237  0.72921683  0.77368673     0.14500
H1364       H  0.23738923  0.71221407  0.65327162     0.14500
C1365       C  0.28124146  0.72593244  0.69624852     0.36100
C1366       C  0.17129302  0.71592771  0.73023469     0.36000
N1367       N  0.30348106  0.72801971  0.68899908    -0.44200
N1368       N  0.14913883  0.71403205  0.73746936    -0.44200
C1369       C  0.25968967  0.66827330  0.88974792    -0.00600
C1370       C  0.25640062  0.67073879  0.92586746    -0.12500
C1371       C  0.25347102  0.64906753  0.94953490     0.01600
C1372       C  0.25308287  0.62378405  0.93710058    -0.00700
C1373       C  0.25587069  0.62135470  0.90073108    -0.12500
C1374       C  0.25936064  0.64319076  0.87739126    -0.00300
H1375       H  0.25798523  0.69054516  0.93589149     0.14500
H1376       H  0.25546728  0.60225596  0.89017761     0.14500
C1377       C  0.26314241  0.63962745  0.84068823     0.36100
C1378       C  0.25185706  0.65392963  0.98634663     0.36000
N1379       N  0.26615639  0.63673959  0.81129451    -0.44200
N1380       N  0.25065964  0.65785744  0.01588984    -0.44200
C1381       C  0.30424869  0.83282841  0.79325524    -0.00600
C1382       C  0.30309957  0.83679679  0.75717559    -0.12500
C1383       C  0.30423987  0.86194670  0.74390368     0.01600
C1384       C  0.30668423  0.88381397  0.76713742    -0.00700
C1385       C  0.31013285  0.88049722  0.80317155    -0.12500
C1386       C  0.30869391  0.85524034  0.81625992     0.01500
H1387       H  0.30080046  0.81990277  0.73934008     0.14500
H1388       H  0.31228168  0.89695628  0.82159479     0.14500
C1389       C  0.31110020  0.85239260  0.85345378     0.36100
C1390       C  0.30143882  0.86382210  0.70661732     0.36000
N1391       N  0.31296208  0.84995428  0.88323698    -0.44200
N1392       N  0.29911672  0.86515891  0.67670927    -0.44200
O1393       O  0.78031837  0.28298582  0.31150324    -0.82300
C1394       C  0.85034247  0.23581909  0.29510977     0.97100
O1395       O  0.83456778  0.24257232  0.27762861    -0.71400
O1396       O  0.79521784  0.25742283  0.26139233    -0.75000
Al1397     Al  0.83013739  0.27366810  0.29179212     1.49000
C1398       C  0.76880113  0.23629492  0.26593202     0.92300
O1399       O  0.76030638  0.21076527  0.36279424    -0.81200
O1400       O  0.80467082  0.24818636  0.40191222    -0.74800
Al1401     Al  0.77411413  0.24780926  0.33587247     1.90100
O1402       O  0.79804425  0.20470563  0.35594575    -0.73800
O1403       O  0.85555448  0.28327085  0.36946049    -0.73700
O1404       O  0.85079355  0.23734106  0.32841931    -0.79300
O1405       O  0.86893431  0.29289030  0.31480597    -0.77600
O1406       O  0.81001214  0.25480248  0.32938367    -1.13700
O1407       O  0.82816766  0.30678671  0.30254827    -0.72900
C1408       C  0.80420839  0.30625510  0.30337330     0.97800
C1409       C  0.77225876  0.19530712  0.36661414     0.94200
Al1410     Al  0.82631625  0.24422687  0.36171034     1.55600
O1411       O  0.75999611  0.22498399  0.29564144    -0.77500
C1412       C  0.87569299  0.29477729  0.34706454     0.98400
C1413       C  0.78964190  0.26074327  0.40319103     0.93300
O1414       O  0.78589790  0.27106707  0.37575830    -0.82800
O1415       O  0.69634364  0.18563513  0.06291963    -0.82300
C1416       C  0.62770479  0.23458481  0.04391933     0.97100
O1417       O  0.64369430  0.22762140  0.02721694    -0.71400
O1418       O  0.68315141  0.21275793  0.01261411    -0.75000
Al1419     Al  0.64740821  0.19598719  0.04143995     1.49000
C1420       C  0.70955577  0.23343909  0.01833620     0.92300
O1421       O  0.71554425  0.25727417  0.11523664    -0.81200
O1422       O  0.66989794  0.22005809  0.15255761    -0.74800
Al1423     Al  0.70203771  0.22047848  0.08788635     1.90100
O1424       O  0.67855697  0.26429401  0.10694098    -0.73800
O1425       O  0.61956766  0.18576366  0.11813524    -0.73700
O1426       O  0.62624321  0.23253068  0.07719740    -0.79300
O1427       O  0.60786299  0.17667074  0.06291530    -0.77600
O1428       O  0.66649879  0.21412612  0.07986611    -1.13700
O1429       O  0.64890379  0.16210453  0.05169442    -0.72900
C1430       C  0.67288711  0.16257389  0.05322530     0.97800
C1431       C  0.70406161  0.27321597  0.11841489     0.94200
Al1432     Al  0.64954561  0.22474062  0.11148137     1.55600
O1433       O  0.71778149  0.24396162  0.04844407    -0.77500
C1434       C  0.60013310  0.17441533  0.09487989     0.98400
C1435       C  0.68481627  0.20742047  0.15440699     0.93300
O1436       O  0.68860249  0.19660670  0.12732042    -0.82800
O1437       O  0.69082973  0.47912423  0.98246492    -0.82300
C1438       C  0.74750820  0.09923454  0.45887294     0.97100
O1439       O  0.74186875  0.07591132  0.44373746    -0.71400
O1440       O  0.72293085  0.02021713  0.42814808    -0.75000
Al1441     Al  0.70772241  0.04077337  0.45617590     1.49000
C1442       C  0.74220460  0.01327407  0.43462357     0.92300
O1443       O  0.76620903  0.03368877  0.03213264    -0.81200
O1444       O  0.72965156  0.04255989  0.06909438    -0.74800
Al1445     Al  0.72859774  0.00955595  0.00491663     1.90100
O1446       O  0.77412419  0.07760550  0.02185136    -0.73800
O1447       O  0.69628875  0.05894200  0.03275946    -0.73700
O1448       O  0.74393975  0.09887372  0.49192584    -0.79300
O1449       O  0.68911992  0.06167511  0.47668586    -0.77600
O1450       O  0.72387508  0.03917874  0.99566920    -1.13700
O1451       O  0.67054387  0.50478132  0.46760556    -0.72900
C1452       C  0.66871199  0.48051708  0.47195773     0.97800
C1453       C  0.78240827  0.06157316  0.03544620     0.94200
Al1454     Al  0.73512673  0.06748788  0.02677586     1.55600
O1455       O  0.75046194  0.51431158  0.46537124    -0.77500
C1456       C  0.68527890  0.06632062  0.00854799     0.98400
C1457       C  0.71601494  0.01464833  0.07145090     0.93300
O1458       O  0.70398170  0.49886329  0.04556508    -0.82800
O1459       O  0.78910425  0.49015150  0.23254778    -0.82300
C1460       C  0.73430708  0.37107990  0.21114381     0.97100
O1461       O  0.73934840  0.39420445  0.19595631    -0.71400
O1462       O  0.75766320  0.44966185  0.18025632    -0.75000
Al1463     Al  0.77361564  0.42964806  0.20709342     1.49000
C1464       C  0.73888459  0.45703682  0.18744418     0.92300
O1465       O  0.71656681  0.43624427  0.28532996    -0.81200
O1466       O  0.75602488  0.42858150  0.32064360    -0.74800
Al1467     Al  0.75341350  0.46097909  0.25741579     1.90100
O1468       O  0.70957709  0.39193559  0.27871792    -0.73800
O1469       O  0.78899455  0.41451242  0.28153703    -0.73700
O1470       O  0.73938456  0.37195797  0.24392720    -0.79300
O1471       O  0.79314372  0.40911576  0.22576081    -0.77600
O1472       O  0.75842555  0.43151123  0.24755374    -1.13700
O1473       O  0.80887262  0.46462658  0.21458687    -0.72900
C1474       C  0.81227051  0.98984165  0.21873281     0.97800
C1475       C  0.70134403  0.40852641  0.29092474     0.94200
Al1476     Al  0.74940412  0.40382256  0.27887831     1.55600
O1477       O  0.72939256  0.45471905  0.21816806    -0.77500
C1478       C  0.79818031  0.40532233  0.25733463     0.98400
C1479       C  0.76833748  0.45621903  0.32393520     0.93300
O1480       O  0.77774187  0.47177030  0.29709872    -0.82800
O1481       O  0.98039146  0.27466345  0.40077732    -0.82300
C1482       C  0.59891573  0.34567418  0.38066929     0.97100
O1483       O  0.57561715  0.32846614  0.36450342    -0.71400
O1484       O  0.52042721  0.28798907  0.35036813    -0.75000
Al1485     Al  0.53989931  0.32429427  0.37826732     1.49000
C1486       C  0.51581886  0.26241619  0.35663480     0.92300
O1487       O  0.53490210  0.25965554  0.45434418    -0.81200
O1488       O  0.54099140  0.30572654  0.49049383    -0.74800
Al1489     Al  0.51043832  0.27071167  0.42600256     1.90100
O1490       O  0.57920683  0.29848150  0.44840330    -0.73800
O1491       O  0.55593517  0.35380504  0.45314471    -0.73700
O1492       O  0.59849631  0.34841910  0.41393036    -0.79300
O1493       O  0.56060158  0.36469299  0.39792838    -0.77600
O1494       O  0.53938221  0.30651735  0.41746754    -1.13700
O1495       O  0.00420582  0.32181614  0.38884637    -0.72900
C1496       C  0.98051176  0.29763576  0.39134142     0.97800
C1497       C  0.56267417  0.27297732  0.45988452     0.94200
Al1498     Al  0.56678339  0.32552849  0.44918851     1.55600
O1499       O  0.51912741  0.25535243  0.38691413    -0.77500
C1500       C  0.56525000  0.37299504  0.42974332     0.98400
C1501       C  0.51302095  0.28933887  0.49218354     0.93300
O1502       O  0.49854682  0.28323602  0.46459141    -0.82800
O1503       O  0.49744495  0.19593126  0.15137157    -0.82300
C1504       C  0.87761049  0.12765718  0.13359353     0.97100
O1505       O  0.90078736  0.14528409  0.11748929    -0.71400
O1506       O  0.95556361  0.18442577  0.10132413    -0.75000
Al1507     Al  0.93642687  0.14803964  0.12830954     1.49000
C1508       C  0.96184414  0.21036243  0.10857530     0.92300
O1509       O  0.94403960  0.21175859  0.20657830    -0.81200
O1510       O  0.93676997  0.16473631  0.24120071    -0.74800
Al1511     Al  0.96816940  0.20063301  0.17766410     1.90100
O1512       O  0.89932949  0.17325636  0.20041164    -0.73800
O1513       O  0.92228862  0.11795284  0.20273612    -0.73700
O1514       O  0.87873405  0.12294452  0.16611796    -0.79300
O1515       O  0.91616629  0.10747887  0.14730401    -0.77600
O1516       O  0.93851110  0.16525887  0.16845403    -1.13700
O1517       O  0.97190239  0.14946657  0.13582253    -0.72900
C1518       C  0.49614544  0.17289844  0.13957448     0.97800
C1519       C  0.91623318  0.19864388  0.21210630     0.94200
Al1520     Al  0.91123710  0.14589495  0.20028414     1.55600
O1521       O  0.96035685  0.21754236  0.13946769    -0.77500
C1522       C  0.91308615  0.09906258  0.17907781     0.98400
C1523       C  0.96465679  0.18051993  0.24350306     0.93300
O1524       O  0.97961563  0.18720360  0.21611275    -0.82800
C1525       C  0.50335623  0.23936920  0.32970238    -0.00600
C1526       C  0.52169997  0.23866051  0.30399674    -0.12500
C1527       C  0.51019372  0.21732014  0.27765002     0.01600
C1528       C  0.97940979  0.19646499  0.27632194    -0.00700
C1529       C  0.96171011  0.19591501  0.30396490    -0.12500
C1530       C  0.97331663  0.21706986  0.33040453     0.01500
H1531       H  0.54502434  0.25507228  0.30425448     0.14500
H1532       H  0.93830878  0.18001214  0.30392029     0.14500
C1533       C  0.95337566  0.21614063  0.35685350     0.36100
C1534       C  0.53057558  0.21824043  0.25180906     0.36000
N1535       N  0.93688932  0.21490412  0.37765925    -0.44200
N1536       N  0.54695075  0.21911270  0.23108461    -0.44200
C1537       C  0.97320623  0.23311402  0.08122345    -0.00600
C1538       C  0.95700883  0.22780490  0.05065646    -0.12500
C1539       C  0.96825743  0.24735905  0.02262059     0.01600
C1540       C  0.49726320  0.27266956  0.02436833    -0.00700
C1541       C  0.51271931  0.27866623  0.05599673    -0.12500
C1542       C  0.50081770  0.25937732  0.08445332     0.01500
H1543       H  0.93559032  0.20791560  0.04846091     0.14500
H1544       H  0.53465616  0.29779054  0.05807760     0.14500
C1545       C  0.51828055  0.26613380  0.11582628     0.36100
C1546       C  0.94963770  0.23940097  0.99205085     0.36000
N1547       N  0.53231367  0.27166800  0.14095946    -0.44200
N1548       N  0.93449612  0.23267910  0.46777112    -0.44200
C1549       C  0.62575009  0.36417043  0.35939868    -0.00600
C1550       C  0.65186739  0.36516442  0.36774652    -0.12500
C1551       C  0.67635592  0.37908374  0.34549297     0.01600
C1552       C  0.67611358  0.39509516  0.31578576    -0.00700
C1553       C  0.65031112  0.39509986  0.30818194    -0.12500
C1554       C  0.62489063  0.37879324  0.32868500     0.01500
H1555       H  0.65246867  0.35325732  0.39043088     0.14500
H1556       H  0.64940111  0.40618446  0.28486400     0.14500
C1557       C  0.59789651  0.37616597  0.31622732     0.36100
C1558       C  0.70073009  0.37507653  0.35334598     0.36000
N1559       N  0.57631310  0.37374923  0.30548317    -0.44200
N1560       N  0.71975604  0.37123790  0.36035672    -0.44200
C1561       C  0.89261013  0.06804307  0.18949569    -0.00600
C1562       C  0.87515213  0.04756251  0.16383866    -0.12500
C1563       C  0.84938665  0.02143947  0.17305735     0.01600
C1564       C  0.83996827  0.01621441  0.20825097    -0.00700
C1565       C  0.85852786  0.03511788  0.23408689    -0.12500
C1566       C  0.88510163  0.06034558  0.22527152     0.01500
H1567       H  0.88077349  0.05253614  0.13640060     0.14500
H1568       H  0.85233375  0.02995303  0.26136466     0.14500
C1569       C  0.90358199  0.07813040  0.25376647     0.36100
C1570       C  0.83285211  0.00047608  0.14596806     0.36000
N1571       N  0.91829651  0.09231918  0.27665714    -0.44200
N1572       N  0.82000770  0.98340359  0.12432647    -0.44200
C1573       C  0.72961485  0.47053637  0.16028697    -0.00600
C1574       C  0.71693561  0.45509298  0.12964174    -0.12500
C1575       C  0.70996207  0.46777088  0.10210095     0.01600
C1576       C  0.71654731  0.49742918  0.10432720    -0.00700
C1577       C  0.72924264  0.01368267  0.13457014    -0.12500
C1578       C  0.73478013  0.49930624  0.16371894     0.01500
H1579       H  0.71286917  0.43300769  0.12698943     0.14500
H1580       H  0.73413244  0.03602878  0.13716574     0.14500
C1581       C  0.74857759  0.01757702  0.19375932     0.36100
C1582       C  0.69770874  0.44969369  0.07136454     0.36000
N1583       N  0.75884719  0.03121638  0.21885632    -0.44200
N1584       N  0.68810499  0.43486816  0.04697397    -0.44200
C1585       C  0.76575951  0.47002955  0.35682617    -0.00600
C1586       C  0.74104421  0.45343599  0.37811571    -0.12500
C1587       C  0.73998519  0.96906477  0.40730213     0.01600
C1588       C  0.74839437  0.49731092  0.40788062    -0.00700
C1589       C  0.77435358  0.51391012  0.38850435    -0.12500
C1590       C  0.78306328  0.50064723  0.36308945     0.01500
H1591       H  0.72742771  0.43013723  0.37390105     0.14500
H1592       H  0.78767483  0.53733244  0.39294031     0.14500
C1593       C  0.80986207  0.51902679  0.34385263     0.36100
C1594       C  0.71852903  0.94988564  0.43271031     0.36000
N1595       N  0.83145161  0.53387889  0.32865929    -0.44200
N1596       N  0.70138406  0.93403709  0.45281426    -0.44200
C1597       C  0.80831908  0.07670506  0.05964280    -0.00600
C1598       C  0.82516496  0.10755703  0.05782973    -0.12500
C1599       C  0.84556594  0.12436306  0.08362809     0.01600
C1600       C  0.85067098  0.11067919  0.11201007    -0.00700
C1601       C  0.83412189  0.07988962  0.11422007    -0.12500
C1602       C  0.81308330  0.06291235  0.08838580     0.01500
H1603       H  0.82184145  0.11891404  0.03657369     0.14500
H1604       H  0.83835831  0.06908979  0.13528704     0.14500
C1605       C  0.79684679  0.03152321  0.09198509     0.36100
C1606       C  0.86083847  0.15591921  0.08048365     0.36000
N1607       N  0.78310085  0.50564219  0.09635888    -0.44200
N1608       N  0.87301965  0.18116360  0.07804002    -0.44200
C1609       C  0.64079585  0.45400103  0.46205047    -0.00600
C1610       C  0.63193978  0.45034309  0.42693146    -0.12500
C1611       C  0.60542500  0.42572166  0.41598166     0.01600
C1612       C  0.58753801  0.40368714  0.44032356    -0.00700
C1613       C  0.59540040  0.40902401  0.47607077    -0.12500
C1614       C  0.62159676  0.43393427  0.48697277     0.01500
H1615       H  0.64591705  0.46681634  0.40793136     0.14500
H1616       H  0.58165254  0.39311211  0.49567153     0.14500
C1617       C  0.62784400  0.43904125  0.02386669     0.36100
C1618       C  0.59685128  0.42443518  0.38002015     0.36000
N1619       N  0.63260148  0.44346894  0.05344062    -0.44200
N1620       N  0.59002056  0.42440646  0.35131815    -0.44200
C1621       C  0.52256637  0.17290899  0.12781452    -0.00600
C1622       C  0.53677779  0.16400941  0.15113208    -0.12500
C1623       C  0.56013819  0.16072869  0.13994423     0.01600
C1624       C  0.56979862  0.16662840  0.10472003    -0.00700
C1625       C  0.55403423  0.17356969  0.08096705    -0.12500
C1626       C  0.53060435  0.17670453  0.09221395     0.01500
H1627       H  0.52952208  0.15951832  0.17811953     0.14500
H1628       H  0.56117534  0.17846466  0.05398868     0.14500
C1629       C  0.51544819  0.18430027  0.06680459     0.36100
C1630       C  0.57402962  0.15163582  0.16531846     0.36000
N1631       N  0.50338660  0.19031778  0.04626301    -0.44200
N1632       N  0.58504678  0.14429753  0.18574740    -0.44200
C1633       C  0.57622643  0.26104525  0.48349896    -0.00600
C1634       C  0.57684119  0.23604081  0.47393402    -0.12500
C1635       C  0.59349473  0.22714938  0.99323954     0.01600
C1636       C  0.60898169  0.24274943  0.02372942    -0.00700
C1637       C  0.60707030  0.26683224  0.53422744    -0.12500
C1638       C  0.59166091  0.27655919  0.51403723     0.01500
H1639       H  0.56549761  0.22427761  0.45040918     0.14500
H1640       H  0.61892099  0.27900253  0.05734840     0.14500
C1641       C  0.59315100  0.30325093  0.52492934     0.36100
C1642       C  0.59453934  0.20213538  0.98065152     0.36000
N1643       N  0.59511448  0.32490624  0.53410107    -0.44200
N1644       N  0.59543246  0.18223557  0.97008379    -0.44200
C1645       C  0.71729982  0.30005656  0.14029330    -0.00600
C1646       C  0.72255269  0.29789532  0.17590639    -0.12500
C1647       C  0.72675696  0.31978201  0.20006073     0.01600
C1648       C  0.72638975  0.34491210  0.18855827    -0.00700
C1649       C  0.72162222  0.34698293  0.15264084    -0.12500
C1650       C  0.71692114  0.32499950  0.12887824     0.01500
H1651       H  0.72158234  0.27819370  0.18528662     0.14500
H1652       H  0.72139048  0.36594288  0.14274751     0.14500
C1653       C  0.71112775  0.32829901  0.09278812     0.36100
C1654       C  0.73042540  0.31524368  0.23641897     0.36000
N1655       N  0.70641090  0.33096216  0.06392733    -0.44200
N1656       N  0.73311174  0.31131121  0.26556653    -0.44200
C1657       C  0.67467328  0.08656527  0.01766129    -0.00600
C1658       C  0.68153341  0.10979958  0.99468045    -0.12500
C1659       C  0.68134438  0.13476346  0.00601712     0.01600
C1660       C  0.67356360  0.13662606  0.04079434    -0.00700
C1661       C  0.66435549  0.11254774  0.06301125    -0.12500
C1662       C  0.66502665  0.08773441  0.05188738     0.01500
H1663       H  0.68926238  0.10954789  0.46849782     0.14500
H1664       H  0.65730675  0.11342550  0.08936874     0.14500
C1665       C  0.65641272  0.06408211  0.07642098     0.36100
C1666       C  0.69015415  0.15853061  0.48161629     0.36000
N1667       N  0.64960128  0.04513266  0.09606719    -0.44200
N1668       N  0.69731333  0.17726446  0.46156986    -0.44200
C1669       C  0.90296403  0.21054362  0.23604730    -0.00600
C1670       C  0.90400863  0.23663119  0.22788230    -0.12500
C1671       C  0.88727507  0.24544678  0.24709628     0.01600
C1672       C  0.86996469  0.22847587  0.27591362    -0.00700
C1673       C  0.87052757  0.20351878  0.28541671    -0.12500
C1674       C  0.88612171  0.19400901  0.26537583     0.01500
H1675       H  0.91665753  0.24930751  0.20543115     0.14500
H1676       H  0.85740728  0.19050467  0.30745361     0.14500
C1677       C  0.88320119  0.16643418  0.27503887     0.36100
C1678       C  0.88821610  0.27191944  0.23639748     0.36000
N1679       N  0.88012219  0.14411254  0.28328959    -0.44200
N1680       N  0.88912070  0.29313845  0.22748893    -0.44200
C1681       C  0.90558203  0.30189917  0.35788634    -0.00600
C1682       C  0.92193805  0.29600015  0.33380905    -0.12500
C1683       C  0.94531571  0.29280462  0.34474788     0.01600
C1684       C  0.95347993  0.29656158  0.38023841    -0.00700
C1685       C  0.93835470  0.30391194  0.40418675    -0.12500
C1686       C  0.91432184  0.30624507  0.39350373     0.01500
H1687       H  0.91522494  0.29180010  0.30666236     0.14500
H1688       H  0.94523649  0.30764041  0.43132922     0.14500
C1689       C  0.89856554  0.31220697  0.41990255     0.36100
C1690       C  0.95997925  0.28478747  0.31910840     0.36000
N1691       N  0.88583441  0.31669533  0.44119448    -0.44200
N1692       N  0.97131301  0.27814606  0.29824939    -0.44200
C1693       C  0.77182650  0.25879651  0.43432558    -0.00600
C1694       C  0.77783673  0.25065381  0.46665616    -0.12500
C1695       C  0.75838402  0.24353434  0.49483216     0.01600
C1696       C  0.73188813  0.24369002  0.49055515    -0.00700
C1697       C  0.72625907  0.25273624  0.45895515    -0.12500
C1698       C  0.74600772  0.26081504  0.43113626     0.01500
H1699       H  0.79728452  0.24894926  0.46963865     0.14500
H1700       H  0.70611600  0.25322113  0.45591734     0.14500
C1701       C  0.73783771  0.26962287  0.39942247     0.36100
C1702       C  0.76549152  0.23473134  0.02725254     0.36000
N1703       N  0.73094189  0.27659603  0.37424004    -0.44200
N1704       N  0.77135651  0.22778052  0.05321315    -0.44200
C1705       C  0.74675673  0.22660647  0.23768341    -0.00600
C1706       C  0.71869743  0.22224995  0.24546852    -0.12500
C1707       C  0.69742239  0.21478514  0.21927936     0.01600
C1708       C  0.70399306  0.21120441  0.18471332    -0.00700
C1709       C  0.73170790  0.21436333  0.17746850    -0.12500
C1710       C  0.75302290  0.22220308  0.20341992     0.01500
H1711       H  0.71361908  0.22537648  0.27200524     0.14500
H1712       H  0.73734553  0.21171159  0.15103485     0.14500
C1713       C  0.78087331  0.22498395  0.19443021     0.36100
C1714       C  0.66893056  0.21022346  0.22855651     0.36000
N1715       N  0.80315672  0.22708853  0.18738433    -0.44200
N1716       N  0.64594184  0.20625418  0.23591862    -0.44200
C1717       C  0.75946541  0.16873055  0.38871284    -0.00600
C1718       C  0.75762537  0.17196353  0.42496738    -0.12500
C1719       C  0.75522992  0.15059711  0.44873159     0.01600
C1720       C  0.75394511  0.12490179  0.43624004    -0.00700
C1721       C  0.75535909  0.12177448  0.39974963    -0.12500
C1722       C  0.75829722  0.14328349  0.37630911    -0.00300
H1723       H  0.76001077  0.19214143  0.43491792     0.14500
H1724       H  0.75428766  0.10237034  0.38913635     0.14500
C1725       C  0.76083983  0.13909762  0.33945153     0.36100
C1726       C  0.75523522  0.15627062  0.48560737     0.36000
N1727       N  0.76289189  0.13572635  0.30994034    -0.44200
N1728       N  0.75532493  0.16095515  0.51515662    -0.44200
C1729       C  0.80451937  0.33265421  0.29184542    -0.00600
C1730       C  0.80513374  0.33792400  0.25587105    -0.12500
C1731       C  0.80645225  0.36330888  0.24329956     0.01600
C1732       C  0.80734066  0.38406501  0.26718557    -0.00700
C1733       C  0.80952223  0.37969455  0.30324650    -0.12500
C1734       C  0.80781536  0.35415836  0.31562549     0.01500
H1735       H  0.80392933  0.32178940  0.23754458     0.14500
H1736       H  0.81070723  0.39542537  0.32216988     0.14500
C1737       C  0.80894690  0.35018875  0.35281012     0.36100
C1738       C  0.80545697  0.36654660  0.20596868     0.36000
N1739       N  0.80986366  0.34693913  0.38258170    -0.44200
N1740       N  0.80462802  0.36896650  0.17600702    -0.44200
O1741       O  0.78031338  0.28298391  0.81149311    -0.82300
C1742       C  0.85032075  0.23580266  0.79510223     0.97100
O1743       O  0.83454605  0.24255700  0.77762340    -0.71400
O1744       O  0.79520549  0.25741795  0.76138864    -0.75000
Al1745     Al  0.83012620  0.27365857  0.79178608     1.49000
C1746       C  0.76878893  0.23628965  0.76592924     0.92300
O1747       O  0.76029357  0.21076344  0.86279601    -0.81200
O1748       O  0.80466226  0.24818660  0.90190405    -0.74800
Al1749     Al  0.77410537  0.24780688  0.83586612     1.90100
O1750       O  0.79802689  0.20469883  0.85594015    -0.73800
O1751       O  0.85554644  0.28325944  0.86945273    -0.73700
O1752       O  0.85077459  0.23732510  0.82841184    -0.79300
O1753       O  0.86892531  0.29287507  0.81479764    -0.77600
O1754       O  0.81000147  0.25479613  0.82937787    -1.13700
O1755       O  0.82816359  0.30678152  0.80254341    -0.72900
C1756       C  0.80420570  0.30625315  0.80336828     0.97800
C1757       C  0.77224384  0.19530299  0.86661462     0.94200
Al1758     Al  0.82630296  0.24421792  0.86170385     1.55600
O1759       O  0.75998570  0.22497775  0.79563858    -0.77500
C1760       C  0.87568457  0.29476222  0.84705622     0.98400
C1761       C  0.78963897  0.26074974  0.90317905     0.93300
O1762       O  0.78589399  0.27107017  0.87574476    -0.82800
O1763       O  0.69633404  0.18563379  0.56293356    -0.82300
C1764       C  0.62768889  0.23457374  0.54391434     0.97100
O1765       O  0.64368031  0.22760998  0.52721676    -0.71400
O1766       O  0.68314059  0.21274900  0.51262203    -0.75000
Al1767     Al  0.64739555  0.19597773  0.54144387     1.49000
C1768       C  0.70954475  0.23343022  0.51834393     0.92300
O1769       O  0.71551976  0.25727335  0.61524489    -0.81200
O1770       O  0.66987346  0.22005273  0.65256568    -0.74800
Al1771     Al  0.70202097  0.22047651  0.58789645     1.90100
O1772       O  0.67852751  0.26428525  0.60694683    -0.73800
O1773       O  0.61954903  0.18574993  0.61813473    -0.73700
O1774       O  0.62622071  0.23251667  0.57719240    -0.79300
O1775       O  0.60784827  0.17665947  0.56291385    -0.77600
O1776       O  0.66648189  0.21412002  0.57987066    -1.13700
O1777       O  0.64889503  0.16209714  0.55170307    -0.72900
C1778       C  0.67288097  0.16257124  0.55323417     0.97800
C1779       C  0.70403227  0.27321119  0.61842297     0.94200
Al1780     Al  0.64952173  0.22472993  0.61148349     1.55600
O1781       O  0.71776901  0.24395764  0.54845082    -0.77500
C1782       C  0.60011623  0.17440390  0.59487752     0.98400
C1783       C  0.68479481  0.20741846  0.65441563     0.93300
O1784       O  0.68858117  0.19660430  0.62732987    -0.82800
O1785       O  0.69082754  0.47911589  0.48245534    -0.82300
C1786       C  0.74752244  0.09924839  0.95889482     0.97100
O1787       O  0.74188993  0.07592636  0.94376262    -0.71400
O1788       O  0.72296365  0.02023902  0.92817011    -0.75000
Al1789     Al  0.70774448  0.04078441  0.95619638     1.49000
C1790       C  0.74222923  0.01328618  0.93465061     0.92300
O1791       O  0.76619673  0.03368221  0.53211325    -0.81200
O1792       O  0.72962631  0.04254303  0.56906940    -0.74800
Al1793     Al  0.72858566  0.00955069  0.50488767     1.90100
O1794       O  0.77410739  0.07759788  0.52184122    -0.73800
O1795       O  0.69626835  0.05892720  0.53273558    -0.73700
O1796       O  0.74395421  0.09888723  0.99194732    -0.79300
O1797       O  0.68913446  0.06167770  0.97670716    -0.77600
O1798       O  0.72385847  0.03917016  0.49564664    -1.13700
O1799       O  0.67054667  0.50478753  0.96760362    -0.72900
C1800       C  0.66871454  0.48052380  0.97196192     0.97800
C1801       C  0.78239351  0.06156665  0.53543400     0.94200
Al1802     Al  0.73510734  0.06747555  0.52675591     1.55600
O1803       O  0.75046405  0.51431891  0.96537626    -0.77500
C1804       C  0.68526489  0.06631560  0.50852771     0.98400
C1805       C  0.71599260  0.01463126  0.57141950     0.93300
O1806       O  0.70397431  0.49884752  0.54555697    -0.82800
O1807       O  0.78909375  0.49015485  0.73254822    -0.82300
C1808       C  0.73430301  0.37108685  0.71114773     0.97100
O1809       O  0.73935412  0.39421313  0.69595630    -0.71400
O1810       O  0.75766782  0.44966895  0.68025912    -0.75000
Al1811     Al  0.77361844  0.42965566  0.70710095     1.49000
C1812       C  0.73887921  0.45703191  0.68744185     0.92300
O1813       O  0.71655785  0.43624637  0.78533000    -0.81200
O1814       O  0.75602396  0.42859074  0.82064470    -0.74800
Al1815     Al  0.75340353  0.46098107  0.75741503     1.90100
O1816       O  0.70957438  0.39194097  0.77871911    -0.73800
O1817       O  0.78899142  0.41451733  0.78154467    -0.73700
O1818       O  0.73938023  0.37196499  0.74393131    -0.79300
O1819       O  0.79314370  0.40912112  0.72577005    -0.77600
O1820       O  0.75842292  0.43151660  0.74755841    -1.13700
O1821       O  0.80887234  0.46463419  0.71460494    -0.72900
C1822       C  0.81225673  0.98984813  0.71870202     0.97800
C1823       C  0.70133821  0.40852887  0.79092582     0.94200
Al1824     Al  0.74940138  0.40382920  0.77888231     1.55600
O1825       O  0.72938238  0.45470982  0.71816394    -0.77500
C1826       C  0.79817726  0.40532583  0.75734419     0.98400
C1827       C  0.76833404  0.45622816  0.82393749     0.93300
O1828       O  0.77772996  0.47178142  0.79710144    -0.82800
O1829       O  0.98039080  0.27466537  0.90078133    -0.82300
C1830       C  0.59891671  0.34566209  0.88067674     0.97100
O1831       O  0.57561825  0.32845450  0.86451111    -0.71400
O1832       O  0.52043002  0.28798173  0.85037448    -0.75000
Al1833     Al  0.53990185  0.32428621  0.87827341     1.49000
C1834       C  0.51582025  0.26240843  0.85664189     0.92300
O1835       O  0.53489635  0.25964316  0.95435342    -0.81200
O1836       O  0.54098766  0.30571216  0.99049966    -0.74800
Al1837     Al  0.51043600  0.27070280  0.92600702     1.90100
O1838       O  0.57920175  0.29846517  0.94840427    -0.73800
O1839       O  0.55594055  0.35379587  0.95315330    -0.73700
O1840       O  0.59849753  0.34840583  0.91393791    -0.79300
O1841       O  0.56060720  0.36468598  0.89793726    -0.77600
O1842       O  0.53938153  0.30650783  0.91747324    -1.13700
O1843       O  0.00420439  0.32182027  0.88886229    -0.72900
C1844       C  0.98051072  0.29763804  0.89134838     0.97800
C1845       C  0.56266875  0.27296356  0.95989194     0.94200
Al1846     Al  0.56678284  0.32551535  0.94919442     1.55600
O1847       O  0.51912688  0.25534354  0.88692133    -0.77500
C1848       C  0.56525746  0.37298705  0.92975297     0.98400
C1849       C  0.51301655  0.28932618  0.99218697     0.93300
O1850       O  0.49854393  0.28322933  0.96459407    -0.82800
O1851       O  0.49744345  0.19595256  0.65136564    -0.82300
C1852       C  0.87761512  0.12766566  0.63356959     0.97100
O1853       O  0.90079524  0.14529063  0.61746843    -0.71400
O1854       O  0.95557699  0.18443699  0.60132158    -0.75000
Al1855     Al  0.93643551  0.14805034  0.62830667     1.49000
C1856       C  0.96185552  0.21037370  0.60856978     0.92300
O1857       O  0.94403375  0.21176913  0.70656883    -0.81200
O1858       O  0.93676063  0.16475033  0.74119423    -0.74800
Al1859     Al  0.96816844  0.20064562  0.67766062     1.90100
O1860       O  0.89932495  0.17326790  0.70038832    -0.73800
O1861       O  0.92228494  0.11796651  0.70273336    -0.73700
O1862       O  0.87873450  0.12295627  0.66609645    -0.79300
O1863       O  0.91617102  0.10748952  0.64730265    -0.77600
O1864       O  0.93851136  0.16527107  0.66844673    -1.13700
O1865       O  0.97191099  0.14947959  0.63583819    -0.72900
C1866       C  0.49614878  0.17291821  0.63958323     0.97800
C1867       C  0.91622637  0.19865281  0.71209064     0.94200
Al1868     Al  0.91123276  0.14590748  0.70027108     1.55600
O1869       O  0.96036165  0.21755464  0.63945978    -0.77500
C1870       C  0.91308401  0.09907461  0.67907760     0.98400
C1871       C  0.96464756  0.18053311  0.74350068     0.93300
O1872       O  0.97960877  0.18721483  0.71611258    -0.82800
C1873       C  0.50335752  0.23936273  0.82970951    -0.00600
C1874       C  0.52169903  0.23866359  0.80399418    -0.12500
C1875       C  0.51019138  0.21732877  0.77764209     0.01600
C1876       C  0.97939991  0.19647834  0.77632035    -0.00700
C1877       C  0.96170128  0.19592741  0.80396519    -0.12500
C1878       C  0.97331013  0.21707822  0.83040972     0.01500
H1879       H  0.54502225  0.25507812  0.80424890     0.14500
H1880       H  0.93829930  0.18002539  0.80392015     0.14500
C1881       C  0.95337131  0.21614564  0.85686407     0.36100
C1882       C  0.53057199  0.21825612  0.75179415     0.36000
N1883       N  0.93688670  0.21490615  0.87767438    -0.44200
N1884       N  0.54694635  0.21913389  0.73106469    -0.44200
C1885       C  0.97322256  0.23312436  0.58121794    -0.00600
C1886       C  0.95701519  0.22782693  0.55066182    -0.12500
C1887       C  0.96826418  0.24738020  0.52262532     0.01600
C1888       C  0.49727032  0.27268722  0.52436838    -0.00700
C1889       C  0.51273947  0.27866400  0.55598465    -0.12500
C1890       C  0.50083926  0.25936968  0.58443585     0.01500
H1891       H  0.93558935  0.20794598  0.54847384     0.14500
H1892       H  0.53468536  0.29777547  0.55805867     0.14500
C1893       C  0.51831692  0.26610254  0.61579310     0.36100
C1894       C  0.94963784  0.23942944  0.49206240     0.36000
N1895       N  0.53236328  0.27161850  0.64091270    -0.44200
N1896       N  0.93450024  0.23264553  0.96775525    -0.44200
C1897       C  0.62574923  0.36416125  0.85940503    -0.00600
C1898       C  0.65186660  0.36515252  0.86774361    -0.12500
C1899       C  0.67635452  0.37907921  0.84549039     0.01600
C1900       C  0.67610899  0.39509414  0.81578857    -0.00700
C1901       C  0.65030563  0.39509993  0.80819303    -0.12500
C1902       C  0.62488763  0.37879183  0.82869992     0.01500
H1903       H  0.65246978  0.35324142  0.89042247     0.14500
H1904       H  0.64939365  0.40618899  0.78488068     0.14500
C1905       C  0.59789385  0.37617447  0.81625783     0.36100
C1906       C  0.70073493  0.37508177  0.85334273     0.36000
N1907       N  0.57631011  0.37376568  0.80552726    -0.44200
N1908       N  0.71976699  0.37125266  0.86035407    -0.44200
C1909       C  0.89260287  0.06805607  0.68949637    -0.00600
C1910       C  0.87516149  0.04757074  0.66383499    -0.12500
C1911       C  0.84939495  0.02144487  0.67304356     0.01600
C1912       C  0.83995864  0.01622093  0.70823059    -0.00700
C1913       C  0.85850026  0.03513131  0.73407333    -0.12500
C1914       C  0.88507484  0.06036243  0.72526986     0.01500
H1915       H  0.88079701  0.05254262  0.63639886     0.14500
H1916       H  0.85229059  0.02996967  0.76134889     0.14500
C1917       C  0.90353410  0.07815438  0.75377409     0.36100
C1918       C  0.83287517  0.00047996  0.64594970     0.36000
N1919       N  0.91823120  0.09234857  0.77667252    -0.44200
N1920       N  0.82004185  0.98340794  0.62430367    -0.44200
C1921       C  0.72960353  0.47052401  0.66028216    -0.00600
C1922       C  0.71693770  0.45508256  0.62963142    -0.12500
C1923       C  0.70995781  0.46775586  0.60209109     0.01600
C1924       C  0.71652960  0.49740953  0.60432135    -0.00700
C1925       C  0.72918815  0.01365552  0.63454527    -0.12500
C1926       C  0.73474691  0.49928528  0.66372029     0.01500
H1927       H  0.71288460  0.43300241  0.62697585     0.14500
H1928       H  0.73405465  0.03599351  0.63714768     0.14500
C1929       C  0.74848920  0.01754540  0.69375021     0.36100
C1930       C  0.69770804  0.44967908  0.57135339     0.36000
N1931       N  0.75873132  0.03117937  0.71885737    -0.44200
N1932       N  0.68810508  0.43485438  0.54696198    -0.44200
C1933       C  0.76576173  0.47003540  0.85683361    -0.00600
C1934       C  0.74103930  0.45344506  0.87811322    -0.12500
C1935       C  0.74012800  0.96911279  0.90738682     0.01600
C1936       C  0.74840075  0.49732024  0.90788694    -0.00700
C1937       C  0.77436931  0.51391506  0.88852465    -0.12500
C1938       C  0.78307729  0.50065012  0.86311016     0.01500
H1939       H  0.72741388  0.43014722  0.87388863     0.14500
H1940       H  0.78769912  0.53733562  0.89297085     0.14500
C1941       C  0.80988792  0.51902319  0.84389080     0.36100
C1942       C  0.71878081  0.94993793  0.93289155     0.36000
N1943       N  0.83148849  0.53387135  0.82871486    -0.44200
N1944       N  0.70172478  0.93410191  0.95307912    -0.44200
C1945       C  0.80830789  0.07670117  0.55962884    -0.00600
C1946       C  0.82516140  0.10755279  0.55780242    -0.12500
C1947       C  0.84557227  0.12436379  0.58359182     0.01600
C1948       C  0.85067553  0.11068591  0.61198242    -0.00700
C1949       C  0.83411767  0.07989698  0.61420672    -0.12500
C1950       C  0.81307276  0.06291500  0.58837889     0.01500
H1951       H  0.82183851  0.11890494  0.53654250     0.14500
H1952       H  0.83835207  0.06910157  0.63527742     0.14500
C1953       C  0.79683415  0.03152716  0.59199234     0.36100
C1954       C  0.86085574  0.15591912  0.58042864     0.36000
N1955       N  0.78308822  0.50563484  0.59640257    -0.44200
N1956       N  0.87304562  0.18116284  0.57796912    -0.44200
C1957       C  0.64079817  0.45400528  0.96205765    -0.00600
C1958       C  0.63193071  0.45035072  0.92694279    -0.12500
C1959       C  0.60541927  0.42572286  0.91599576     0.01600
C1960       C  0.58754684  0.40367907  0.94033566    -0.00700
C1961       C  0.59542054  0.40901092  0.97608037    -0.12500
C1962       C  0.62161266  0.43392734  0.98697998     0.01500
H1963       H  0.64589676  0.46683090  0.90794361     0.14500
H1964       H  0.58168389  0.39309228  0.99568111     0.14500
C1965       C  0.62782227  0.43905078  0.52386041     0.36100
C1966       C  0.59683269  0.42444021  0.88004039     0.36000
N1967       N  0.63257679  0.44347986  0.55343467    -0.44200
N1968       N  0.58999207  0.42441530  0.85134379    -0.44200
C1969       C  0.52257080  0.17293137  0.62782426    -0.00600
C1970       C  0.53675870  0.16399318  0.65112698    -0.12500
C1971       C  0.56011229  0.16070428  0.63993127     0.01600
C1972       C  0.56978507  0.16662842  0.60471338    -0.00700
C1973       C  0.55404439  0.17361043  0.58097336    -0.12500
C1974       C  0.53062554  0.17675950  0.59222906     0.01500
H1975       H  0.52949028  0.15947892  0.67810836     0.14500
H1976       H  0.56119737  0.17852669  0.55400103     0.14500
C1977       C  0.51549578  0.18439954  0.56683367     0.36100
C1978       C  0.57398390  0.15157670  0.66529035     0.36000
N1979       N  0.50345606  0.19045310  0.54630266    -0.44200
N1980       N  0.58498479  0.14421038  0.68570736    -0.44200
C1981       C  0.57622243  0.26103599  0.98351193    -0.00600
C1982       C  0.57682015  0.23601854  0.97396692    -0.12500
C1983       C  0.59351152  0.22716673  0.49320663     0.01600
C1984       C  0.60897401  0.24274584  0.52371839    -0.00700
C1985       C  0.60709359  0.26684802  0.03422186    -0.12500
C1986       C  0.59167599  0.27656666  0.01403370     0.01500
H1987       H  0.56545937  0.22424019  0.95045682     0.14500
H1988       H  0.61888133  0.27897288  0.55736866     0.14500
C1989       C  0.59317289  0.30326428  0.02491375     0.36100
C1990       C  0.59457881  0.20217121  0.48059408     0.36000
N1991       N  0.59513983  0.32492313  0.03407675    -0.44200
N1992       N  0.59549167  0.18228772  0.47000550    -0.44200
C1993       C  0.71726576  0.30005207  0.64030214    -0.00600
C1994       C  0.72253057  0.29789578  0.67591267    -0.12500
C1995       C  0.72674349  0.31978607  0.70006637     0.01600
C1996       C  0.72637060  0.34491356  0.68856628    -0.00700
C1997       C  0.72158476  0.34697693  0.65265298    -0.12500
C1998       C  0.71687772  0.32499126  0.62889061     0.01500
H1999       H  0.72156664  0.27819675  0.68529160     0.14500
H2000       H  0.72134658  0.36593427  0.64276248     0.14500
C2001       C  0.71107544  0.32828815  0.59280320     0.36100
C2002       C  0.73043039  0.31525655  0.73642180     0.36000
N2003       N  0.70635318  0.33095069  0.56394439    -0.44200
N2004       N  0.73313179  0.31133299  0.76556783    -0.44200
C2005       C  0.67467006  0.08656774  0.51764873    -0.00600
C2006       C  0.68154331  0.10981123  0.49467787    -0.12500
C2007       C  0.68135555  0.13477412  0.50602193     0.01600
C2008       C  0.67356468  0.13662802  0.54079765    -0.00700
C2009       C  0.66434949  0.11254327  0.56300582    -0.12500
C2010       C  0.66501857  0.08773047  0.55187432     0.01500
H2011       H  0.68924733  0.10953075  0.96849855     0.14500
H2012       H  0.65729457  0.11341455  0.58936223     0.14500
C2013       C  0.65639560  0.06407090  0.57639941     0.36100
C2014       C  0.69013883  0.15851620  0.98160645     0.36000
N2015       N  0.64957706  0.04511558  0.59603874    -0.44200
N2016       N  0.69729657  0.17724999  0.96156018    -0.44200
C2017       C  0.90295328  0.21054562  0.73603456    -0.00600
C2018       C  0.90398859  0.23662829  0.72786942    -0.12500
C2019       C  0.88724951  0.24543638  0.74708359     0.01600
C2020       C  0.86994379  0.22846347  0.77590251    -0.00700
C2021       C  0.87051449  0.20351051  0.78540492    -0.12500
C2022       C  0.88611335  0.19400722  0.76536270     0.01500
H2023       H  0.91663419  0.24930611  0.70541721     0.14500
H2024       H  0.85739680  0.19049449  0.80744239     0.14500
C2025       C  0.88319901  0.16643468  0.77502388     0.36100
C2026       C  0.88817942  0.27190294  0.73638171     0.36000
N2027       N  0.88012411  0.14411464  0.78327451    -0.44200
N2028       N  0.88907455  0.29311655  0.72746935    -0.44200
C2029       C  0.90557302  0.30188274  0.85787931    -0.00600
C2030       C  0.92192528  0.29597324  0.83380812    -0.12500
C2031       C  0.94530659  0.29278511  0.84475167     0.01600
C2032       C  0.95347863  0.29656114  0.88024010    -0.00700
C2033       C  0.93835506  0.30391866  0.90418189    -0.12500
C2034       C  0.91431724  0.30624184  0.89349537     0.01500
H2035       H  0.91520703  0.29176034  0.80666370     0.14500
H2036       H  0.94524040  0.30765799  0.93132268     0.14500
C2037       C  0.89855942  0.31220466  0.91989107     0.36100
C2038       C  0.95996609  0.28475712  0.81911927     0.36000
N2039       N  0.88582717  0.31669248  0.94118199    -0.44200
N2040       N  0.97129582  0.27810707  0.79826479    -0.44200
C2041       C  0.77182847  0.25881263  0.93431152    -0.00600
C2042       C  0.77786176  0.25070728  0.96665193    -0.12500
C2043       C  0.75841549  0.24359441  0.99483245     0.01600
C2044       C  0.73189768  0.24370717  0.99054557    -0.00700
C2045       C  0.72624787  0.25272171  0.95893526    -0.12500
C2046       C  0.74599552  0.26080539  0.93111532     0.01500
H2047       H  0.79732513  0.24903093  0.96964065     0.14500
H2048       H  0.70609198  0.25318128  0.95589196     0.14500
C2049       C  0.73781366  0.26959609  0.89939681     0.36100
C2050       C  0.76542432  0.23461319  0.52723365     0.36000
N2051       N  0.73090948  0.27655839  0.87421225    -0.44200
N2052       N  0.77125743  0.22761154  0.55317876    -0.44200
C2053       C  0.74674301  0.22660304  0.73768273    -0.00600
C2054       C  0.71867656  0.22222529  0.74547689    -0.12500
C2055       C  0.69739991  0.21476324  0.71929026     0.01600
C2056       C  0.70397756  0.21120904  0.68471743    -0.00700
C2057       C  0.73170058  0.21439093  0.67746245    -0.12500
C2058       C  0.75301560  0.22222506  0.70341153     0.01500
H2059       H  0.71359281  0.22533135  0.77201934     0.14500
H2060       H  0.73734302  0.21175815  0.65102363     0.14500
C2061       C  0.78087134  0.22502248  0.69441087     0.36100
C2062       C  0.66889832  0.21017101  0.72857825     0.36000
N2063       N  0.80315827  0.22713886  0.68735520    -0.44200
N2064       N  0.64590219  0.20617610  0.73595241    -0.44200
C2065       C  0.75945355  0.16872656  0.88871565    -0.00600
C2066       C  0.75759424  0.17195606  0.92496766    -0.12500
C2067       C  0.75520847  0.15059741  0.94873935     0.01600
C2068       C  0.75395118  0.12491214  0.93625793    -0.00700
C2069       C  0.75538457  0.12178833  0.89977021    -0.12500
C2070       C  0.75831419  0.14328983  0.87632289    -0.00300
H2071       H  0.75995969  0.19212741  0.93491173     0.14500
H2072       H  0.75433672  0.10239303  0.88916437     0.14500
C2073       C  0.76088384  0.13910960  0.83947009     0.36100
C2074       C  0.75519693  0.15627050  0.98561266     0.36000
N2075       N  0.76295951  0.13574367  0.80996315    -0.44200
N2076       N  0.75527331  0.16095723  0.01515928    -0.44200
C2077       C  0.80452019  0.33265551  0.79184570    -0.00600
C2078       C  0.80514657  0.33793515  0.75587272    -0.12500
C2079       C  0.80646125  0.36331960  0.74330641     0.01600
C2080       C  0.80733550  0.38406667  0.76719632    -0.00700
C2081       C  0.80950453  0.37968667  0.80325757    -0.12500
C2082       C  0.80780033  0.35415017  0.81563129     0.01500
H2083       H  0.80395267  0.32180745  0.73754278     0.14500
H2084       H  0.81067808  0.39541003  0.82218463     0.14500
C2085       C  0.80891875  0.35017084  0.85281583     0.36100
C2086       C  0.80547568  0.36656508  0.70597583     0.36000
N2087       N  0.80982522  0.34691417  0.88258745    -0.44200
N2088       N  0.80465435  0.36899036  0.67601416    -0.44200
O2089       O  0.78062935  0.78336964  0.31377275    -0.82300
C2090       C  0.85072902  0.73636776  0.29677011     0.97100
O2091       O  0.83514865  0.74347816  0.27947852    -0.71400
O2092       O  0.79594149  0.75847890  0.26353795    -0.75000
Al2093     Al  0.83068362  0.77445752  0.29402792     1.49000
C2094       C  0.76952313  0.73734036  0.26781203     0.92300
O2095       O  0.76068831  0.71071147  0.36442880    -0.81200
O2096       O  0.80496966  0.74800337  0.40389879    -0.74800
Al2097     Al  0.77452431  0.74803528  0.33787555     1.90100
O2098       O  0.79849416  0.70481342  0.35752903    -0.73800
O2099       O  0.85622249  0.78336065  0.37174276    -0.73700
O2100       O  0.85123348  0.73769326  0.33008920    -0.79300
O2101       O  0.86940670  0.79351069  0.31706136    -0.77600
O2102       O  0.81050808  0.75523088  0.33144379    -1.13700
O2103       O  0.82851655  0.80753797  0.30511763    -0.72900
C2104       C  0.80439392  0.80674925  0.30553257     0.97800
C2105       C  0.77264685  0.69523144  0.36809412     0.94200
Al2106     Al  0.82677598  0.74437207  0.36358778     1.55600
O2107       O  0.76061937  0.72557452  0.29731091    -0.77500
C2108       C  0.87628134  0.79520000  0.34924525     0.98400
C2109       C  0.78973633  0.76035187  0.40532220     0.93300
O2110       O  0.78614857  0.77095095  0.37802637    -0.82800
O2111       O  0.69599612  0.68554697  0.06537754    -0.82300
C2112       C  0.62660964  0.73368786  0.04595223     0.97100
O2113       O  0.64237973  0.72647698  0.02922392    -0.71400
O2114       O  0.68198980  0.71179411  0.01448818    -0.75000
Al2115     Al  0.64660292  0.69530654  0.04398027     1.49000
C2116       C  0.70849392  0.73245382  0.01968543     0.92300
O2117       O  0.71547798  0.75809409  0.11601380    -0.81200
O2118       O  0.67048006  0.72161662  0.15439392    -0.74800
Al2119     Al  0.70181995  0.72080758  0.08958511     1.90100
O2120       O  0.67831179  0.76481437  0.10756093    -0.73800
O2121       O  0.61986554  0.68646084  0.12129830    -0.73700
O2122       O  0.62555376  0.73218653  0.07924603    -0.79300
O2123       O  0.60741550  0.67608893  0.06639955    -0.77600
O2124       O  0.66613910  0.71416261  0.08189269    -1.13700
O2125       O  0.64850313  0.66173554  0.05458264    -0.72900
C2126       C  0.67258115  0.66238857  0.05578269     0.97800
C2127       C  0.70388775  0.77396742  0.11892975     0.94200
Al2128     Al  0.64951499  0.72530681  0.11338458     1.55600
O2129       O  0.71704411  0.74354190  0.04950260    -0.77500
C2130       C  0.60013381  0.67436353  0.09850097     0.98400
C2131       C  0.68543067  0.70904552  0.15653518     0.93300
O2132       O  0.68893134  0.69771753  0.12971172    -0.82800
O2133       O  0.69232195  0.98036485  0.98124262    -0.82300
C2134       C  0.74613867  0.59783838  0.45957613     0.97100
O2135       O  0.73982615  0.57434380  0.44430278    -0.71400
O2136       O  0.72026445  0.51815224  0.42931484    -0.75000
Al2137     Al  0.70582117  0.53935301  0.45772600     1.49000
C2138       C  0.73985630  0.51148873  0.43516895     0.92300
O2139       O  0.76529924  0.53238280  0.03261077    -0.81200
O2140       O  0.72896323  0.54139617  0.07012792    -0.74800
Al2141     Al  0.72742995  0.50831951  0.00571177     1.90100
O2142       O  0.77317679  0.57625390  0.02231283    -0.73800
O2143       O  0.69564643  0.55806699  0.03436238    -0.73700
O2144       O  0.74303873  0.59759830  0.49273436    -0.79300
O2145       O  0.68783579  0.56084268  0.47860875    -0.77600
O2146       O  0.72259952  0.53794117  0.99679507    -1.13700
O2147       O  0.67233733  0.00598672  0.46498983    -0.72900
C2148       C  0.67037138  0.98173738  0.47004165     0.97800
C2149       C  0.78155974  0.56027196  0.03578304     0.94200
Al2150     Al  0.73430001  0.56632857  0.02776209     1.55600
O2151       O  0.75198106  0.01543458  0.46514266    -0.77500
C2152       C  0.68452866  0.56569968  0.01057654     0.98400
C2153       C  0.71523578  0.51347029  0.07260482     0.93300
O2154       O  0.70471980  0.00012116  0.04438452    -0.82800
O2155       O  0.79073007  0.99157329  0.23087162    -0.82300
C2156       C  0.73439835  0.87247141  0.21060948     0.97100
O2157       O  0.74012684  0.89570227  0.19512586    -0.71400
O2158       O  0.75933435  0.95129644  0.17920932    -0.75000
Al2159     Al  0.77468470  0.93080101  0.20638384     1.49000
C2160       C  0.74051650  0.95870567  0.18613462     0.92300
O2161       O  0.71798609  0.93869364  0.28442489    -0.81200
O2162       O  0.75735469  0.93087203  0.31974843    -0.74800
Al2163     Al  0.75489120  0.96280869  0.25599785     1.90100
O2164       O  0.71036373  0.89420449  0.27790276    -0.73800
O2165       O  0.78935414  0.91524149  0.28103766    -0.73700
O2166       O  0.73932834  0.87336825  0.24344695    -0.79300
O2167       O  0.79344789  0.90953792  0.22535140    -0.77600
O2168       O  0.75947694  0.93302483  0.24661424    -1.13700
O2169       O  0.81025610  0.96549828  0.21420848    -0.72900
C2170       C  0.81060443  0.48877966  0.21960293     0.97800
C2171       C  0.70245441  0.91100042  0.29017208     0.94200
Al2172     Al  0.75001670  0.90546479  0.27820543     1.55600
O2173       O  0.73084170  0.95639704  0.21677161    -0.77500
C2174       C  0.79817800  0.90555808  0.25699194     0.98400
C2175       C  0.77013147  0.95861766  0.32243082     0.93300
O2176       O  0.77938478  0.97360872  0.29521716    -0.82800
O2177       O  0.98127778  0.77572021  0.40229178    -0.82300
C2178       C  0.59998315  0.84563567  0.37984352     0.97100
O2179       O  0.57647217  0.82829382  0.36409292    -0.71400
O2180       O  0.52071299  0.78815413  0.35083046    -0.75000
Al2181     Al  0.54094282  0.82453453  0.37853472     1.49000
C2182       C  0.51547798  0.76236911  0.35712857     0.92300
O2183       O  0.53561939  0.75960988  0.45446979    -0.81200
O2184       O  0.54323931  0.80612432  0.49074590    -0.74800
Al2185     Al  0.51121696  0.77112063  0.42680074     1.90100
O2186       O  0.58015251  0.79782787  0.44736695    -0.73800
O2187       O  0.55849729  0.85434835  0.45348680    -0.73700
O2188       O  0.59990508  0.84819503  0.41315901    -0.79300
O2189       O  0.56212049  0.86486502  0.39813351    -0.77600
O2190       O  0.54049044  0.80674262  0.41773924    -1.13700
O2191       O  0.00565523  0.82271239  0.38953039    -0.72900
C2192       C  0.98175728  0.79880158  0.39249483     0.97800
C2193       C  0.56343411  0.77259794  0.45955395     0.94200
Al2194     Al  0.56849991  0.82550505  0.44887463     1.55600
O2195       O  0.51887050  0.75525618  0.38733900    -0.77500
C2196       C  0.56723897  0.87334523  0.42986979     0.98400
C2197       C  0.51526668  0.79017534  0.49330203     0.93300
O2198       O  0.50024663  0.78391609  0.46606849    -0.82800
O2199       O  0.49682793  0.69489388  0.15370784    -0.82300
C2200       C  0.87713689  0.62754264  0.13330767     0.97100
O2201       O  0.90051586  0.64523233  0.11752025    -0.71400
O2202       O  0.95598409  0.68418127  0.10221294    -0.75000
Al2203     Al  0.93591810  0.64760970  0.12921519     1.49000
C2204       C  0.96272923  0.71030304  0.10929679     0.92300
O2205       O  0.94316403  0.71142365  0.20709461    -0.81200
O2206       O  0.93497780  0.66415768  0.24213162    -0.74800
Al2207     Al  0.96748952  0.70005584  0.17890059     1.90100
O2208       O  0.89833341  0.67314253  0.20050263    -0.73800
O2209       O  0.92086973  0.61755915  0.20348477    -0.73700
O2210       O  0.87787982  0.62291307  0.16594402    -0.79300
O2211       O  0.91489196  0.60686798  0.14816836    -0.77600
O2212       O  0.93766472  0.66489229  0.16923618    -1.13700
O2213       O  0.97103965  0.64852168  0.13773267    -0.72900
C2214       C  0.49540496  0.67173746  0.14220897     0.97800
C2215       C  0.91532512  0.69842164  0.21245685     0.94200
Al2216     Al  0.90998309  0.64559795  0.20068082     1.55600
O2217       O  0.96085503  0.71750300  0.14009388    -0.77500
C2218       C  0.91145236  0.59852811  0.18001467     0.98400
C2219       C  0.96283887  0.67967096  0.24488824     0.93300
O2220       O  0.97805730  0.68623764  0.21774772    -0.82800
C2221       C  0.50234882  0.73921090  0.33032534    -0.00600
C2222       C  0.52048403  0.73682566  0.30570030    -0.12500
C2223       C  0.50847459  0.71514732  0.27975057     0.01600
C2224       C  0.97745677  0.69555860  0.27779680    -0.00700
C2225       C  0.95983951  0.69660271  0.30447656    -0.12500
C2226       C  0.97189178  0.71820947  0.33039343     0.01500
H2227       H  0.54406790  0.75220995  0.30646261     0.14500
H2228       H  0.93624573  0.68167728  0.30397054     0.14500
C2229       C  0.95202466  0.71902769  0.35562512     0.36100
C2230       C  0.52863131  0.71437175  0.25490029     0.36000
N2231       N  0.93549403  0.71914851  0.37534299    -0.44200
N2232       N  0.54479395  0.71387441  0.23491307    -0.44200
C2233       C  0.97522134  0.73331144  0.08204719    -0.00600
C2234       C  0.95783024  0.73133245  0.05363414    -0.12500
C2235       C  0.96953123  0.75162434  0.02620027     0.01600
C2236       C  0.50000328  0.77406751  0.02610891    -0.00700
C2237       C  0.51682790  0.77690880  0.05582827    -0.12500
C2238       C  0.50466105  0.75704050  0.08376840     0.01500
H2239       H  0.93502177  0.71359781  0.05269253     0.14500
H2240       H  0.53992780  0.79383413  0.05663138     0.14500
C2241       C  0.52342962  0.76057060  0.11301021     0.36100
C2242       C  0.94958605  0.74771337  0.99808563     0.36000
N2243       N  0.53863241  0.76362762  0.13636873    -0.44200
N2244       N  0.93349963  0.74438765  0.47565784    -0.44200
C2245       C  0.62663775  0.86462662  0.35824957    -0.00600
C2246       C  0.65355252  0.86769767  0.36749604    -0.12500
C2247       C  0.67820742  0.88257668  0.34560074     0.01600
C2248       C  0.67729618  0.89764151  0.31528478    -0.00700
C2249       C  0.65062359  0.89560013  0.30673835    -0.12500
C2250       C  0.62518045  0.87837255  0.32700371     0.01500
H2251       H  0.65475491  0.85657299  0.39062476     0.14500
H2252       H  0.64915021  0.90579010  0.28290513     0.14500
C2253       C  0.59767892  0.87418067  0.31398222     0.36100
C2254       C  0.70321235  0.87977179  0.35398827     0.36000
N2255       N  0.57570816  0.87060448  0.30293653    -0.44200
N2256       N  0.72257646  0.87656239  0.36137944    -0.44200
C2257       C  0.89051298  0.56763576  0.19070237    -0.00600
C2258       C  0.87381698  0.54668882  0.16508357    -0.12500
C2259       C  0.84815358  0.52037355  0.17416556     0.01600
C2260       C  0.83804626  0.51541757  0.20911914    -0.00700
C2261       C  0.85563394  0.53502210  0.23494699    -0.12500
C2262       C  0.88210891  0.56040890  0.22640957     0.01500
H2263       H  0.88001955  0.55136438  0.13775965     0.14500
H2264       H  0.84876887  0.53024770  0.26206422     0.14500
C2265       C  0.89946926  0.57876849  0.25519749     0.36100
C2266       C  0.83230714  0.49904714  0.14713059     0.36000
N2267       N  0.91320761  0.59336861  0.27839063    -0.44200
N2268       N  0.81994168  0.48174367  0.12554672    -0.44200
C2269       C  0.73131879  0.97213082  0.15879628    -0.00600
C2270       C  0.71922803  0.95682465  0.12790063    -0.12500
C2271       C  0.71201741  0.96932784  0.10038743     0.01600
C2272       C  0.71772460  0.99866411  0.10294338    -0.00700
C2273       C  0.72853229  0.51255538  0.13580160    -0.12500
C2274       C  0.73574385  0.00061141  0.16243531     0.01500
H2275       H  0.71576684  0.93497934  0.12505952     0.14500
H2276       H  0.73404570  0.53511351  0.13819942     0.14500
C2277       C  0.74816077  0.51633810  0.19485983     0.36100
C2278       C  0.70048902  0.95148220  0.06935974     0.36000
N2279       N  0.75886864  0.52997448  0.21984414    -0.44200
N2280       N  0.69146559  0.93684906  0.04473979    -0.44200
C2281       C  0.76882394  0.97343343  0.35519985    -0.00600
C2282       C  0.74867253  0.95638947  0.38137649    -0.12500
C2283       C  0.73221633  0.46659783  0.40318654     0.01600
C2284       C  0.75140125  0.99961162  0.40752883    -0.00700
C2285       C  0.77316722  0.01708435  0.38318949    -0.12500
C2286       C  0.78226519  0.00444057  0.35752187     0.01500
H2287       H  0.73851211  0.93286213  0.38077860     0.14500
H2288       H  0.78307948  0.04068161  0.38421519     0.14500
C2289       C  0.80543731  0.02402867  0.33400089     0.36100
C2290       C  0.70613613  0.44770339  0.42332768     0.36000
N2291       N  0.82412528  0.03992308  0.31540813    -0.44200
N2292       N  0.68521031  0.43162891  0.43890603    -0.44200
C2293       C  0.80777466  0.57556746  0.05955172    -0.00600
C2294       C  0.82480330  0.60639015  0.05705485    -0.12500
C2295       C  0.84531335  0.62353850  0.08261500     0.01600
C2296       C  0.85042093  0.61023984  0.11139671    -0.00700
C2297       C  0.83383518  0.57947086  0.11416944    -0.12500
C2298       C  0.81262506  0.56214701  0.08863666     0.01500
H2299       H  0.82142492  0.61747013  0.03553317     0.14500
H2300       H  0.83805668  0.56894785  0.13556782     0.14500
C2301       C  0.79620150  0.53081901  0.09305884     0.36100
C2302       C  0.86041581  0.65504639  0.07902612     0.36000
N2303       N  0.78383797  0.00628450  0.09445282    -0.44200
N2304       N  0.87237558  0.68025563  0.07626111    -0.44200
C2305       C  0.64239566  0.95510591  0.46063655    -0.00600
C2306       C  0.63314640  0.95102611  0.42565206    -0.12500
C2307       C  0.60670914  0.92606825  0.41519722     0.01600
C2308       C  0.58925770  0.90422782  0.43995861    -0.00700
C2309       C  0.59740505  0.91003666  0.47557720    -0.12500
C2310       C  0.62356671  0.93521657  0.48596612     0.01500
H2311       H  0.64682945  0.96733314  0.40633821     0.14500
H2312       H  0.58396458  0.89426128  0.49545871     0.14500
C2313       C  0.63014791  0.94075670  0.02276584     0.36100
C2314       C  0.59798733  0.92392329  0.37915238     0.36000
N2315       N  0.63516376  0.94548013  0.05225902    -0.44200
N2316       N  0.59095198  0.92291543  0.35033749    -0.44200
C2317       C  0.52182456  0.67155342  0.13095063    -0.00600
C2318       C  0.53716630  0.66469361  0.15512065    -0.12500
C2319       C  0.56089071  0.66180198  0.14441222     0.01600
C2320       C  0.56974865  0.66608865  0.10881999    -0.00700
C2321       C  0.55285112  0.67092748  0.08444492    -0.12500
C2322       C  0.52910580  0.67366455  0.09521552     0.01500
H2323       H  0.53055372  0.66153854  0.18236171     0.14500
H2324       H  0.55933545  0.67457225  0.05717688     0.14500
C2325       C  0.51292163  0.67934700  0.06916887     0.36100
C2326       C  0.57602300  0.65490138  0.17062885     0.36000
N2327       N  0.49997027  0.68383746  0.04822236    -0.44200
N2328       N  0.58808633  0.64936225  0.19169939    -0.44200
C2329       C  0.57675149  0.76081004  0.48379763    -0.00600
C2330       C  0.57508475  0.73426912  0.47648536    -0.12500
C2331       C  0.59093997  0.72495399  0.99667177     0.01600
C2332       C  0.60789380  0.74176045  0.02575808    -0.00700
C2333       C  0.60809776  0.76732203  0.53426643    -0.12500
C2334       C  0.59342867  0.77734371  0.51324098     0.01500
H2335       H  0.56254383  0.72151585  0.45403502     0.14500
H2336       H  0.62103338  0.78033051  0.05639412     0.14500
C2337       C  0.59683919  0.80523303  0.52235034     0.36100
C2338       C  0.58957633  0.69813783  0.98665420     0.36000
N2339       N  0.60031762  0.82778869  0.53025289    -0.44200
N2340       N  0.58849807  0.67670995  0.97831317    -0.44200
C2341       C  0.71696496  0.80084321  0.14070890    -0.00600
C2342       C  0.72114521  0.79849590  0.17661631    -0.12500
C2343       C  0.72521332  0.82051553  0.20044889     0.01600
C2344       C  0.72597967  0.84605117  0.18832033    -0.00700
C2345       C  0.72206711  0.84822425  0.15216895    -0.12500
C2346       C  0.71732360  0.82601994  0.12872443     0.01500
H2347       H  0.71946533  0.77857980  0.18640957     0.14500
H2348       H  0.72259324  0.86744622  0.14183825     0.14500
C2349       C  0.71224422  0.82933512  0.09237484     0.36100
C2350       C  0.72768615  0.81579002  0.23709751     0.36000
N2351       N  0.70807527  0.83201620  0.06330891    -0.44200
N2352       N  0.72945002  0.81180976  0.26648838    -0.44200
C2353       C  0.67419460  0.58612618  0.02035698    -0.00600
C2354       C  0.67905286  0.60838840  0.99671428    -0.12500
C2355       C  0.67884773  0.63342695  0.00790803     0.01600
C2356       C  0.67330512  0.63643521  0.04332348    -0.00700
C2357       C  0.66616457  0.61333206  0.06638525    -0.12500
C2358       C  0.66659776  0.58838694  0.05533498     0.01500
H2359       H  0.68524625  0.60737633  0.46995406     0.14500
H2360       H  0.66075909  0.61502343  0.09329691     0.14500
C2361       C  0.65983415  0.56575258  0.08077012     0.36100
C2362       C  0.68556732  0.65620898  0.48269743     0.36000
N2363       N  0.65452162  0.54765076  0.10117209    -0.44200
N2364       N  0.69100267  0.67416598  0.46204297    -0.44200
C2365       C  0.90215482  0.71029235  0.23660653    -0.00600
C2366       C  0.90350774  0.73657296  0.22876777    -0.12500
C2367       C  0.88720734  0.74565403  0.24839825     0.01600
C2368       C  0.86999804  0.72874018  0.27728464    -0.00700
C2369       C  0.87018678  0.70351922  0.28642439    -0.12500
C2370       C  0.88536683  0.69375899  0.26599484     0.01500
H2371       H  0.91612184  0.74925736  0.20630394     0.14500
H2372       H  0.85711981  0.69053795  0.30850637     0.14500
C2373       C  0.88218842  0.66604426  0.27550634     0.36100
C2374       C  0.88851007  0.77237928  0.23809912     0.36000
N2375       N  0.87896700  0.64367752  0.28382752    -0.44200
N2376       N  0.88967572  0.79380061  0.22955792    -0.44200
C2377       C  0.90641359  0.80280276  0.35972530    -0.00600
C2378       C  0.92290566  0.79730963  0.33539105    -0.12500
C2379       C  0.94661697  0.79452836  0.34601574     0.01600
C2380       C  0.95485152  0.79810361  0.38150019    -0.00700
C2381       C  0.93970507  0.80527724  0.40564045    -0.12500
C2382       C  0.91545870  0.80736519  0.39521593     0.01500
H2383       H  0.91605016  0.79307894  0.30828156     0.14500
H2384       H  0.94669985  0.80900404  0.43274680     0.14500
C2385       C  0.89982260  0.81336441  0.42171927     0.36100
C2386       C  0.96149263  0.78704164  0.32005730     0.36000
N2387       N  0.88721768  0.81794715  0.44308361    -0.44200
N2388       N  0.97299458  0.78084805  0.29891593    -0.44200
C2389       C  0.77148896  0.75780816  0.43633182    -0.00600
C2390       C  0.77622894  0.74778953  0.46809839    -0.12500
C2391       C  0.75628620  0.74016405  0.49583621     0.01600
C2392       C  0.73068283  0.74197480  0.49180826    -0.00700
C2393       C  0.72620117  0.75267267  0.46077350    -0.12500
C2394       C  0.74634125  0.76100935  0.43330687     0.01500
H2395       H  0.79501899  0.74497224  0.47092296     0.14500
H2396       H  0.70671451  0.75435952  0.45793429     0.14500
C2397       C  0.73926289  0.77138286  0.40205552     0.36100
C2398       C  0.76193370  0.72916841  0.02754064     0.36000
N2399       N  0.73323538  0.77954309  0.37718240    -0.44200
N2400       N  0.76659654  0.72040629  0.05289629    -0.44200
C2401       C  0.74760618  0.72831611  0.23958094    -0.00600
C2402       C  0.72009654  0.72527857  0.24728620    -0.12500
C2403       C  0.69887733  0.71821394  0.22114845     0.01600
C2404       C  0.70478620  0.71327164  0.18680641    -0.00700
C2405       C  0.73212587  0.71556880  0.17959551    -0.12500
C2406       C  0.75355246  0.72343086  0.20538947     0.01500
H2407       H  0.71548482  0.72922967  0.27368618     0.14500
H2408       H  0.73743366  0.71229028  0.15325771     0.14500
C2409       C  0.78129344  0.72603233  0.19623187     0.36100
C2410       C  0.67131294  0.71595139  0.23022634     0.36000
N2411       N  0.80354553  0.72815046  0.18897569    -0.44200
N2412       N  0.64915807  0.71405568  0.23745728    -0.44200
C2413       C  0.75968499  0.66829520  0.38977272    -0.00600
C2414       C  0.75646455  0.67078020  0.42590498    -0.12500
C2415       C  0.75352637  0.64909610  0.44955761     0.01600
C2416       C  0.75306378  0.62378230  0.43709764    -0.00700
C2417       C  0.75578537  0.62133561  0.40071687    -0.12500
C2418       C  0.75928300  0.64318354  0.37739069    -0.00300
H2419       H  0.75810649  0.69060702  0.43594560     0.14500
H2420       H  0.75532348  0.60221412  0.39014273     0.14500
C2421       C  0.76299661  0.63960206  0.34067354     0.36100
C2422       C  0.75197987  0.65397350  0.48637936     0.36000
N2423       N  0.76595553  0.63670090  0.31126774    -0.44200
N2424       N  0.75083403  0.65790810  0.51593118    -0.44200
C2425       C  0.80429603  0.83286066  0.29326241    -0.00600
C2426       C  0.80312400  0.83681283  0.25718292    -0.12500
C2427       C  0.80427110  0.86196368  0.24390409     0.01600
C2428       C  0.80674081  0.88384549  0.26713080    -0.00700
C2429       C  0.81022049  0.88054824  0.30316134    -0.12500
C2430       C  0.80877763  0.85529150  0.31625702     0.01500
H2431       H  0.80080147  0.81990581  0.23935375     0.14500
H2432       H  0.81239172  0.89702073  0.32157739     0.14500
C2433       C  0.81121077  0.85246083  0.35344908     0.36100
C2434       C  0.80144881  0.86382515  0.20661943     0.36000
N2435       N  0.81309329  0.85003559  0.38323100    -0.44200
N2436       N  0.79911035  0.86515190  0.17671293    -0.44200
O2437       O  0.78060746  0.78335765  0.81377287    -0.82300
C2438       C  0.85072901  0.73638028  0.79675214     0.97100
O2439       O  0.83514700  0.74349018  0.77946336    -0.71400
O2440       O  0.79592567  0.75847378  0.76353471    -0.75000
Al2441     Al  0.83067145  0.77446191  0.79401890     1.49000
C2442       C  0.76951011  0.73733014  0.76781257     0.92300
O2443       O  0.76068835  0.71070629  0.86442392    -0.81200
O2444       O  0.80496788  0.74799873  0.90388926    -0.74800
Al2445     Al  0.77451570  0.74802818  0.83787326     1.90100
O2446       O  0.79849659  0.70481510  0.85750789    -0.73800
O2447       O  0.85621712  0.78336239  0.87173268    -0.73700
O2448       O  0.85123379  0.73770308  0.83007108    -0.79300
O2449       O  0.86939618  0.79352233  0.81705023    -0.77600
O2450       O  0.81050132  0.75523119  0.83143492    -1.13700
O2451       O  0.82849352  0.80753701  0.80511143    -0.72900
C2452       C  0.80436710  0.80674098  0.80553066     0.97800
C2453       C  0.77264948  0.69522789  0.86807691     0.94200
Al2454     Al  0.82677435  0.74437376  0.86357347     1.55600
O2455       O  0.76061033  0.72556570  0.79731237    -0.77500
C2456       C  0.87627346  0.79520935  0.84923317     0.98400
C2457       C  0.78973534  0.76034802  0.90531563     0.93300
O2458       O  0.78614377  0.77094556  0.87802119    -0.82800
O2459       O  0.69600259  0.68555806  0.56537740    -0.82300
C2460       C  0.62659046  0.73366790  0.54596264     0.97100
O2461       O  0.64235974  0.72645746  0.52923128    -0.71400
O2462       O  0.68198056  0.71178876  0.51449235    -0.75000
Al2463     Al  0.64659472  0.69529475  0.54398786     1.49000
C2464       C  0.70848220  0.73245565  0.51968508     0.92300
O2465       O  0.71546340  0.75809855  0.61602074    -0.81200
O2466       O  0.67046814  0.72160475  0.65440129    -0.74800
Al2467     Al  0.70181490  0.72081401  0.58958661     1.90100
O2468       O  0.67828670  0.76480274  0.60757552    -0.73800
O2469       O  0.61985575  0.68644177  0.62130529    -0.73700
O2470       O  0.62553550  0.73216674  0.57925641    -0.79300
O2471       O  0.60740820  0.67607073  0.56640640    -0.77600
O2472       O  0.66612951  0.71415680  0.58189859    -1.13700
O2473       O  0.64850769  0.66173013  0.55459442    -0.72900
C2474       C  0.67259119  0.66239333  0.55578895     0.97800
C2475       C  0.70386469  0.77396415  0.61894192     0.94200
Al2476     Al  0.64949915  0.72529179  0.61339414     1.55600
O2477       O  0.71703161  0.74354977  0.54950066    -0.77500
C2478       C  0.60012503  0.67434597  0.59850670     0.98400
C2479       C  0.68542390  0.70903884  0.65653692     0.93300
O2480       O  0.68893244  0.69772095  0.62970963    -0.82800
O2481       O  0.69230882  0.98036075  0.48121210    -0.82300
C2482       C  0.74614037  0.59784688  0.95957596     0.97100
O2483       O  0.73982815  0.57435171  0.94430488    -0.71400
O2484       O  0.72026991  0.51816187  0.92931725    -0.75000
Al2485     Al  0.70582385  0.53936059  0.95772729     1.49000
C2486       C  0.73986138  0.51149826  0.93517317     0.92300
O2487       O  0.76529445  0.53236946  0.53261476    -0.81200
O2488       O  0.72895030  0.54137866  0.57012600    -0.74800
Al2489     Al  0.72742636  0.50830874  0.50570723     1.90100
O2490       O  0.77317218  0.57624133  0.52232314    -0.73800
O2491       O  0.69564054  0.55805478  0.53435882    -0.73700
O2492       O  0.74303829  0.59760857  0.99273316    -0.79300
O2493       O  0.68783485  0.56084636  0.97861136    -0.77600
O2494       O  0.72259687  0.53793157  0.49679336    -1.13700
O2495       O  0.67235964  0.00599442  0.96500066    -0.72900
C2496       C  0.67038911  0.98174410  0.97006192     0.97800
C2497       C  0.78155419  0.56025852  0.53579316     0.94200
Al2498     Al  0.73429460  0.56631585  0.52776346     1.55600
O2499       O  0.75198982  0.01542785  0.96517456    -0.77500
C2500       C  0.68453083  0.56569669  0.51057379     0.98400
C2501       C  0.71522282  0.51345254  0.57259912     0.93300
O2502       O  0.70470412  0.00010654  0.54435070    -0.82800
O2503       O  0.79071383  0.99158241  0.73082678    -0.82300
C2504       C  0.73437245  0.87247826  0.71061046     0.97100
O2505       O  0.74010699  0.89570760  0.69511844    -0.71400
O2506       O  0.75931970  0.95129831  0.67918611    -0.75000
Al2507     Al  0.77466785  0.93080506  0.70636946     1.49000
C2508       C  0.74049713  0.95870257  0.68610701     0.92300
O2509       O  0.71798034  0.93872624  0.78440646    -0.81200
O2510       O  0.75735481  0.93091354  0.81973126    -0.74800
Al2511     Al  0.75487881  0.96282671  0.75596507     1.90100
O2512       O  0.71035167  0.89423460  0.77789784    -0.73800
O2513       O  0.78933710  0.91525832  0.78102824    -0.73700
O2514       O  0.73930213  0.87338081  0.74344913    -0.79300
O2515       O  0.79342422  0.90953682  0.72534676    -0.77600
O2516       O  0.75946270  0.93303982  0.74659652    -1.13700
O2517       O  0.81024229  0.96550317  0.71418902    -0.72900
C2518       C  0.81059948  0.48878578  0.71961619     0.97800
C2519       C  0.70244817  0.91103529  0.79016492     0.94200
Al2520     Al  0.75000236  0.90548874  0.77819798     1.55600
O2521       O  0.73082214  0.95639710  0.71674310    -0.77500
C2522       C  0.79814988  0.90555837  0.75698986     0.98400
C2523       C  0.77013468  0.95866092  0.82239879     0.93300
O2524       O  0.77937897  0.97363992  0.79517594    -0.82800
O2525       O  0.98127225  0.77574878  0.90229662    -0.82300
C2526       C  0.59999329  0.84565432  0.87984869     0.97100
O2527       O  0.57648446  0.82830934  0.86409706    -0.71400
O2528       O  0.52072852  0.78817760  0.85082178    -0.75000
Al2529     Al  0.54095491  0.82455326  0.87853023     1.49000
C2530       C  0.51549030  0.76239163  0.85711786     0.92300
O2531       O  0.53562375  0.75962173  0.95446156    -0.81200
O2532       O  0.54323728  0.80613089  0.99074412    -0.74800
Al2533     Al  0.51122274  0.77113597  0.92679036     1.90100
O2534       O  0.58015675  0.79784090  0.94736533    -0.73800
O2535       O  0.55850253  0.85436282  0.95348638    -0.73700
O2536       O  0.59991305  0.84821155  0.91316432    -0.79300
O2537       O  0.56213224  0.86488270  0.89813324    -0.77600
O2538       O  0.54049690  0.80675840  0.91773470    -1.13700
O2539       O  0.00565774  0.82273833  0.88952096    -0.72900
C2540       C  0.98175714  0.79883020  0.89248828     0.97800
C2541       C  0.56343853  0.77260955  0.95954819     0.94200
Al2542     Al  0.56850365  0.82551771  0.94887495     1.55600
O2543       O  0.51887859  0.75527471  0.88732803    -0.77500
C2544       C  0.56725008  0.87336143  0.92987013     0.98400
C2545       C  0.51526411  0.79017982  0.99329474     0.93300
O2546       O  0.50024875  0.78392872  0.96605828    -0.82800
O2547       O  0.49682490  0.69489487  0.65369449    -0.82300
C2548       C  0.87714660  0.62753443  0.63330667     0.97100
O2549       O  0.90052819  0.64521463  0.61751615    -0.71400
O2550       O  0.95599969  0.68416604  0.60222048    -0.75000
Al2551     Al  0.93593181  0.64760111  0.62923423     1.49000
C2552       C  0.96273799  0.71028787  0.60929198     0.92300
O2553       O  0.94316501  0.71143451  0.70708217    -0.81200
O2554       O  0.93497917  0.66417880  0.74213695    -0.74800
Al2555     Al  0.96749213  0.70006195  0.67889942     1.90100
O2556       O  0.89833576  0.67315344  0.70048747    -0.73800
O2557       O  0.92087219  0.61757069  0.70351398    -0.73700
O2558       O  0.87788642  0.62291605  0.66594726    -0.79300
O2559       O  0.91490454  0.60686595  0.64820174    -0.77600
O2560       O  0.93767004  0.66489465  0.66924345    -1.13700
O2561       O  0.97105524  0.64851978  0.63777592    -0.72900
C2562       C  0.49540324  0.67173508  0.64221262     0.97800
C2563       C  0.91532582  0.69843344  0.71244010     0.94200
Al2564     Al  0.90998597  0.64560873  0.70068671     1.55600
O2565       O  0.96085408  0.71749430  0.64008232    -0.77500
C2566       C  0.91145783  0.59853403  0.68005118     0.98400
C2567       C  0.96284045  0.67969225  0.74489428     0.93300
O2568       O  0.97805970  0.68625384  0.71775501    -0.82800
C2569       C  0.50236480  0.73923823  0.83031043    -0.00600
C2570       C  0.52049974  0.73688103  0.80566066    -0.12500
C2571       C  0.50849461  0.71520883  0.77970453     0.01600
C2572       C  0.97745842  0.69558315  0.77780128    -0.00700
C2573       C  0.95983947  0.69661505  0.80448795    -0.12500
C2574       C  0.97188716  0.71821986  0.83040741     0.01500
H2575       H  0.54408015  0.75228495  0.80640686     0.14500
H2576       H  0.93624681  0.68168270  0.80398428     0.14500
C2577       C  0.95201610  0.71903659  0.85563449     0.36100
C2578       C  0.52865279  0.71447724  0.75481847     0.36000
N2579       N  0.93548275  0.71915907  0.87534662    -0.44200
N2580       N  0.54481731  0.71401858  0.73480143    -0.44200
C2581       C  0.97523597  0.73329023  0.58203848    -0.00600
C2582       C  0.95783850  0.73132624  0.55364002    -0.12500
C2583       C  0.96954089  0.75161697  0.52620586     0.01600
C2584       C  0.50001188  0.77407097  0.52612047    -0.00700
C2585       C  0.51684765  0.77687943  0.55581601    -0.12500
C2586       C  0.50467988  0.75700342  0.58374718     0.01500
H2587       H  0.93502364  0.71360401  0.55270994     0.14500
H2588       H  0.53995574  0.79378290  0.55660491     0.14500
C2589       C  0.52345840  0.76050069  0.61296490     0.36100
C2590       C  0.94959085  0.74772127  0.49810377     0.36000
N2591       N  0.53867078  0.76353366  0.63630329    -0.44200
N2592       N  0.93349916  0.74436858  0.97562967    -0.44200
C2593       C  0.62664502  0.86465418  0.85825505    -0.00600
C2594       C  0.65356699  0.86774393  0.86750492    -0.12500
C2595       C  0.67822061  0.88263222  0.84560983     0.01600
C2596       C  0.67729783  0.89768442  0.81528773    -0.00700
C2597       C  0.65061837  0.89562701  0.80673971    -0.12500
C2598       C  0.62517856  0.87839229  0.82700676     0.01500
H2599       H  0.65477691  0.85662559  0.89063636     0.14500
H2600       H  0.64913723  0.90580808  0.78290279     0.14500
C2601       C  0.59767129  0.87418503  0.81398400     0.36100
C2602       C  0.70323421  0.87984265  0.85399913     0.36000
N2603       N  0.57569621  0.87059828  0.80293911    -0.44200
N2604       N  0.72260146  0.87663760  0.86138828    -0.44200
C2605       C  0.89051366  0.56764500  0.69074439    -0.00600
C2606       C  0.87383486  0.54669203  0.66512392    -0.12500
C2607       C  0.84816819  0.52037734  0.67419683     0.01600
C2608       C  0.83804279  0.51542524  0.70914261    -0.00700
C2609       C  0.85561197  0.53503711  0.73497460    -0.12500
C2610       C  0.88208781  0.56042644  0.72644778     0.01500
H2611       H  0.88005253  0.55136305  0.63780358     0.14500
H2612       H  0.84873030  0.53026745  0.76208722     0.14500
C2613       C  0.89942282  0.57879791  0.75524157     0.36100
C2614       C  0.83233332  0.49905057  0.64715817     0.36000
N2615       N  0.91313919  0.59340715  0.77844021    -0.44200
N2616       N  0.81997567  0.48174843  0.62557064    -0.44200
C2617       C  0.73129481  0.97211966  0.65876547    -0.00600
C2618       C  0.71923155  0.95681998  0.62785906    -0.12500
C2619       C  0.71201922  0.96931870  0.60034325     0.01600
C2620       C  0.71769946  0.99864497  0.60290857    -0.00700
C2621       C  0.72849811  0.51253176  0.63580153    -0.12500
C2622       C  0.73568864  0.00058751  0.66241320     0.01500
H2623       H  0.71579324  0.93498385  0.62501221     0.14500
H2624       H  0.73399728  0.53508554  0.63820367     0.14500
C2625       C  0.74810497  0.51631167  0.69487081     0.36100
C2626       C  0.70051800  0.95148087  0.56930546     0.36000
N2627       N  0.75879373  0.52994290  0.71986367    -0.44200
N2628       N  0.69151549  0.93685373  0.54467830    -0.44200
C2629       C  0.76885062  0.97349347  0.85516679    -0.00600
C2630       C  0.74880319  0.95644991  0.88143001    -0.12500
C2631       C  0.73221399  0.46660841  0.90318418     0.01600
C2632       C  0.75144097  0.99964198  0.90754891    -0.00700
C2633       C  0.77310712  0.01712158  0.88311621    -0.12500
C2634       C  0.78220677  0.00449625  0.85742800     0.01500
H2635       H  0.73871552  0.93292807  0.88088359     0.14500
H2636       H  0.78294364  0.04071115  0.88408870     0.14500
C2637       C  0.80529006  0.02410153  0.83382335     0.36100
C2638       C  0.70612842  0.44771660  0.92331794     0.36000
N2639       N  0.82390700  0.04001108  0.81516437    -0.44200
N2640       N  0.68519856  0.43164330  0.93889071    -0.44200
C2641       C  0.80777020  0.57555413  0.55956264    -0.00600
C2642       C  0.82480326  0.60637662  0.55705971    -0.12500
C2643       C  0.84531873  0.62352698  0.58261512     0.01600
C2644       C  0.85042813  0.61023094  0.61139798    -0.00700
C2645       C  0.83383700  0.57946261  0.61417825    -0.12500
C2646       C  0.81262034  0.56213675  0.58865168     0.01500
H2647       H  0.82142456  0.61745504  0.53553712     0.14500
H2648       H  0.83805860  0.56894124  0.63557854     0.14500
C2649       C  0.79619053  0.53081019  0.59308678     0.36100
C2650       C  0.86042179  0.65503453  0.57902283     0.36000
N2651       N  0.78382900  0.00628966  0.59447636    -0.44200
N2652       N  0.87238023  0.68024351  0.57625536    -0.44200
C2653       C  0.64241383  0.95511431  0.96065223    -0.00600
C2654       C  0.63317660  0.95103393  0.92566370    -0.12500
C2655       C  0.60673993  0.92607960  0.91520138     0.01600
C2656       C  0.58927489  0.90424236  0.93996039    -0.00700
C2657       C  0.59741215  0.91005129  0.97558180    -0.12500
C2658       C  0.62357369  0.93522869  0.98597780     0.01500
H2659       H  0.64686894  0.96733857  0.90635203     0.14500
H2660       H  0.58396243  0.89427845  0.99546085     0.14500
C2661       C  0.63015395  0.94074247  0.52275194     0.36100
C2662       C  0.59803524  0.92393726  0.87915029     0.36000
N2663       N  0.63518132  0.94546476  0.55224331    -0.44200
N2664       N  0.59101832  0.92293718  0.85032887    -0.44200
C2665       C  0.52182350  0.67155253  0.63095626    -0.00600
C2666       C  0.53714543  0.66465976  0.65511754    -0.12500
C2667       C  0.56086978  0.66176886  0.64440644     0.01600
C2668       C  0.56974184  0.66608108  0.60881954    -0.00700
C2669       C  0.55286550  0.67095694  0.58445152    -0.12500
C2670       C  0.52912579  0.67370156  0.59522560     0.01500
H2671       H  0.53051933  0.66148147  0.68235434     0.14500
H2672       H  0.55936370  0.67462563  0.55718899     0.14500
C2673       C  0.51296911  0.67943011  0.56918812     0.36100
C2674       C  0.57598745  0.65484238  0.67061479     0.36000
N2675       N  0.50004100  0.68395895  0.54824867    -0.44200
N2676       N  0.58803858  0.64928263  0.69167965    -0.44200
C2677       C  0.57675754  0.76082094  0.98379026    -0.00600
C2678       C  0.57510577  0.73428837  0.97646738    -0.12500
C2679       C  0.59091296  0.72493041  0.49669311     0.01600
C2680       C  0.60787543  0.74174167  0.52577160    -0.00700
C2681       C  0.60810321  0.76733303  0.03426105    -0.12500
C2682       C  0.59342890  0.77735126  0.01323865     0.01500
H2683       H  0.56257197  0.72153872  0.95401093     0.14500
H2684       H  0.62103390  0.78032211  0.55639473     0.14500
C2685       C  0.59682998  0.80523540  0.02235479     0.36100
C2686       C  0.58953371  0.69810447  0.48668760     0.36000
N2687       N  0.60030183  0.82778763  0.03026169    -0.44200
N2688       N  0.58844170  0.67666804  0.47835660    -0.44200
C2689       C  0.71693637  0.80084285  0.64071841    -0.00600
C2690       C  0.72113562  0.79850617  0.67662343    -0.12500
C2691       C  0.72520308  0.82052718  0.70045479     0.01600
C2692       C  0.72594773  0.84605258  0.68832792    -0.00700
C2693       C  0.72201232  0.84821345  0.65218009    -0.12500
C2694       C  0.71727223  0.82600931  0.62873675     0.01500
H2695       H  0.71947278  0.77859801  0.68641639     0.14500
H2696       H  0.72252018  0.86742664  0.64185116     0.14500
C2697       C  0.71217649  0.82931602  0.59239029     0.36100
C2698       C  0.72769976  0.81581483  0.73710134     0.36000
N2699       N  0.70799555  0.83199136  0.56332693    -0.44200
N2700       N  0.72948306  0.81184668  0.76649125    -0.44200
C2701       C  0.67421259  0.58613562  0.52035503    -0.00600
C2702       C  0.67910174  0.60841442  0.49672273    -0.12500
C2703       C  0.67889892  0.63345308  0.50792053     0.01600
C2704       C  0.67332571  0.63644511  0.54332945    -0.00700
C2705       C  0.66616258  0.61332964  0.56638092    -0.12500
C2706       C  0.66659769  0.58838588  0.55532775     0.01500
H2707       H  0.68517983  0.60734085  0.96994005     0.14500
H2708       H  0.66073811  0.61501031  0.59328775     0.14500
C2709       C  0.65981838  0.56574195  0.58075482     0.36100
C2710       C  0.68549367  0.65617183  0.98267681     0.36000
N2711       N  0.65449519  0.54763249  0.60114970    -0.44200
N2712       N  0.69091284  0.67412227  0.96201869    -0.44200
C2713       C  0.90215406  0.71030482  0.73658692    -0.00600
C2714       C  0.90350259  0.73658285  0.72874373    -0.12500
C2715       C  0.88720320  0.74566476  0.74837531     0.01600
C2716       C  0.86999715  0.72875295  0.77726445    -0.00700
C2717       C  0.87019016  0.70353502  0.78640793    -0.12500
C2718       C  0.88537120  0.69377523  0.76597996     0.01500
H2719       H  0.91611420  0.74926554  0.70627744     0.14500
H2720       H  0.85712680  0.69055617  0.80849320     0.14500
C2721       C  0.88220013  0.66606539  0.77550040     0.36100
C2722       C  0.88850648  0.77239069  0.73807816     0.36000
N2723       N  0.87898403  0.64370271  0.78383086    -0.44200
N2724       N  0.88967308  0.79381318  0.72954032    -0.44200
C2725       C  0.90640898  0.80282079  0.85970943    -0.00600
C2726       C  0.92289898  0.79732194  0.83537831    -0.12500
C2727       C  0.94661400  0.79454731  0.84600534     0.01600
C2728       C  0.95485329  0.79813426  0.88148877    -0.00700
C2729       C  0.93970874  0.80531377  0.90562462    -0.12500
C2730       C  0.91545951  0.80739579  0.89519794     0.01500
H2731       H  0.91603874  0.79308103  0.80827107     0.14500
H2732       H  0.94670656  0.80904864  0.93272983     0.14500
C2733       C  0.89982593  0.81340186  0.92169754     0.36100
C2734       C  0.96148774  0.78705442  0.82005114     0.36000
N2735       N  0.88722401  0.81799069  0.94305978    -0.44200
N2736       N  0.97298814  0.78085611  0.79891290    -0.44200
C2737       C  0.77149225  0.75780732  0.93632678    -0.00600
C2738       C  0.77624956  0.74781280  0.96810089    -0.12500
C2739       C  0.75631381  0.74019480  0.99584496     0.01600
C2740       C  0.73069415  0.74197637  0.99180897    -0.00700
C2741       C  0.72619663  0.75265208  0.96076670    -0.12500
C2742       C  0.74633510  0.76099244  0.93329921     0.01500
H2743       H  0.79505097  0.74501389  0.97092921     0.14500
H2744       H  0.70670059  0.75432255  0.95792419     0.14500
C2745       C  0.73924811  0.77135757  0.90204720     0.36100
C2746       C  0.76187707  0.72909254  0.52751317     0.36000
N2747       N  0.73321449  0.77951336  0.87717503    -0.44200
N2748       N  0.76651482  0.72029071  0.55285233    -0.44200
C2749       C  0.74759104  0.72829748  0.73958420    -0.00600
C2750       C  0.72007228  0.72523731  0.74729449    -0.12500
C2751       C  0.69885367  0.71817265  0.72115627     0.01600
C2752       C  0.70477559  0.71325840  0.68680824    -0.00700
C2753       C  0.73212210  0.71557220  0.67959370    -0.12500
C2754       C  0.75354530  0.72342897  0.70538949     0.01500
H2755       H  0.71545245  0.72917028  0.77369855     0.14500
H2756       H  0.73743727  0.71230993  0.65325252     0.14500
C2757       C  0.78129017  0.72603951  0.69623098     0.36100
C2758       C  0.67127455  0.71587479  0.73024122     0.36000
N2759       N  0.80354472  0.72816314  0.68897508    -0.44200
N2760       N  0.64910729  0.71394831  0.73748044    -0.44200
C2761       C  0.75969232  0.66828898  0.88974909    -0.00600
C2762       C  0.75641839  0.67075919  0.92587139    -0.12500
C2763       C  0.75348368  0.64908374  0.94953536     0.01600
C2764       C  0.75307037  0.62378948  0.93709444    -0.00700
C2765       C  0.75584518  0.62135668  0.90072272    -0.12500
C2766       C  0.75934539  0.64319909  0.87738677    -0.00300
H2767       H  0.75802016  0.69057187  0.93589933     0.14500
H2768       H  0.75542591  0.60225166  0.89016468     0.14500
C2769       C  0.76312367  0.63963652  0.84068256     0.36100
C2770       C  0.75189538  0.65395450  0.98635015     0.36000
N2771       N  0.76613718  0.63675088  0.81128805    -0.44200
N2772       N  0.75071981  0.65788978  0.01589571    -0.44200
C2773       C  0.80425820  0.83284821  0.79326429    -0.00600
C2774       C  0.80311193  0.83681613  0.75718409    -0.12500
C2775       C  0.80425070  0.86196450  0.74390949     0.01600
C2776       C  0.80669326  0.88383238  0.76714062    -0.00700
C2777       C  0.81013788  0.88051581  0.80317625    -0.12500
C2778       C  0.80869769  0.85525898  0.81626765     0.01500
H2779       H  0.80081438  0.81992178  0.73934999     0.14500
H2780       H  0.81228347  0.89697425  0.82159803     0.14500
C2781       C  0.81109503  0.85240951  0.85346300     0.36100
C2782       C  0.80144633  0.86383597  0.70662318     0.36000
N2783       N  0.81294895  0.84996981  0.88324753    -0.44200
N2784       N  0.79911991  0.86516936  0.67671543    -0.44200
loop_ 
_geom_bond_atom_site_label_1 
_geom_bond_atom_site_label_2 
_geom_bond_distance 
_geom_bond_site_symmetry_2 
_ccdc_geom_bond_type 
O1           C16   1.272       .  A
O1           Al9   1.963       .  S
C2           O12   1.277       .  A
C2            O3   1.258       .  A
C2          C280   1.479       .  S
O3           Al5   1.868       .  S
O4            C6   1.278       .  A
O4           Al5   1.968       .  S
Al5          O13   1.969       .  S
Al5          O15   1.865       .  S
Al5          O14   1.764       .  S
C6           O19   1.258       .  A
C6          C313   1.476       .  S
O7           C17   1.278       .  A
O7           Al9   2.001       .  S
O8           C21   1.276       .  A
O8          Al18   1.992       .  S
Al9          O22   1.859       .  S
Al9          O19   1.863       .  S
Al9          O14   1.755       .  S
O10          C17   1.255       .  A
O10         Al18   1.864       .  S
O11          C20   1.254       .  A
O11         Al18   1.869       .  S
O12         Al18   1.980       .  S
O13          C20   1.275       .  A
O14         Al18   1.759       .  S
O15          C16   1.254       .  A
C16         C337   1.465       .  S
C17         C325   1.480       .  S
C20         C289   1.484       .  S
C21          O22   1.248       .  A
C21         C301   1.489       .  S
O23          C38   1.272       .  A
O23         Al31   1.967       .  S
C24          O34   1.277       .  A
C24          O25   1.258       .  A
C24         C244   1.488       .  S
O25         Al27   1.874       .  S
O26          C28   1.277       .  A
O26         Al27   1.963       .  S
Al27         O35   1.974       .  S
Al27         O37   1.887       .  S
Al27         O36   1.764       .  S
C28          O41   1.257       .  A
C28         C652   1.470   1_554  S
O29          C39   1.279       .  A
O29         Al31   2.001       .  S
O30          C43   1.276       .  A
O30         Al40   1.993       .  S
Al31         O44   1.863       .  S
Al31         O41   1.861       .  S
Al31         O36   1.759       .  S
O32          C39   1.258       .  A
O32         Al40   1.870       .  S
O33          C42   1.256       .  A
O33         Al40   1.871       .  S
O34         Al40   1.986       .  S
O35          C42   1.276       .  A
O36         Al40   1.763       .  S
O37          C38   1.258       .  A
C38         C268   1.479       .  S
C39         C253   1.484       .  S
C42         C232   1.485       .  S
C43          O44   1.251       .  A
C43         C316   1.486       .  S
O45         C408   1.276       .  A
O45        Al749   1.966   1_556  S
C46          O56   1.278       .  A
C46          O47   1.259       .  A
C46         C328   1.502       .  S
O47         Al49   1.874       .  S
O48          C50   1.275       .  A
O48         Al49   1.975       .  S
Al49         O57   1.987       .  S
Al49        O755   1.866       .  S
Al49        O406   1.759       .  S
C50         O759   1.259       .  A
C50         C892   1.485   1_545  S
O51          C61   1.283       .  A
O51         Al53   2.017       .  S
O52          C65   1.278       .  A
O52         Al62   2.019       .  S
Al53        O741   1.963   1_544  S
Al53        O762   1.864       .  S
Al53       O1107   1.882   1_554  S
Al53         O58   1.755   1_554  S
O54          C61   1.256       .  A
O54         Al62   1.855       .  S
O55          C64   1.261       .  A
O55         Al62   1.876       .  S
O56        Al410   1.997       .  S
O57         C412   1.280       .  A
O58         Al62   1.766   1_556  S
O58        Al397   1.759       .  S
O59          C60   1.256       .  A
O59        Al745   1.866       .  S
C60         O393   1.276       .  A
C60         C217   1.475       .  S
C61         C205   1.501       .  S
Al62        O404   1.997   1_554  S
O63         C746   1.260       .  A
O63       Al1097   1.889       .  S
C64         O405   1.280   1_554  A
C64         C265   1.490       .  S
C65         O762   1.246       .  A
C65         C880   1.505   1_545  S
O66         C761   1.247       .  A
O66        Al749   1.864       .  S
O67         C778   1.277       .  A
O67         Al75   1.966       .  S
C68          O78   1.279       .  A
C68          O69   1.260       .  A
C68         C256   1.504       .  S
O69         Al71   1.874       .  S
O70          C72   1.272       .  A
O70         Al71   1.957       .  S
Al71         O79   1.984       .  S
Al71         O81   1.859       .  S
Al71         O80   1.770       .  S
C72          O85   1.259       .  A
C72         C181   1.484       .  S
O73          C83   1.284       .  A
O73         Al75   2.009       .  S
O74          C87   1.272       .  A
O74         Al84   1.985       .  S
Al75         O88   1.880       .  S
Al75         O85   1.884       .  S
Al75         O80   1.761       .  S
O76          C83   1.258       .  A
O76         Al84   1.863       .  S
O77          C86   1.256       .  A
O77         Al84   1.870       .  S
O78         Al84   2.005       .  S
O79          C86   1.276       .  A
O80         Al84   1.765       .  S
O81         C778   1.256       .  A
C82         O763   1.277       .  A
C82         O777   1.257       .  A
C82         C172   1.471   1_565  S
C83         C160   1.489       .  S
C86         C340   1.491       .  S
C87          O88   1.251       .  A
C87         C193   1.499       .  S
O89         C104   1.272       .  A
O89       Al1489   1.962       .  S
C90         O100   1.283       .  A
C90          O91   1.257       .  A
C90         C157   1.486       .  S
O91         Al93   1.862       .  S
O92          C94   1.276       .  A
O92         Al93   1.972       .  S
Al93        O101   1.992       .  S
Al93       O1495   1.869       .  S
Al93        O102   1.767       .  S
C94         O107   1.258       .  A
C94         C133   1.473       .  S
O95         C105   1.279       .  A
O95         Al97   1.997       .  S
O96         C109   1.276       .  A
O96        Al106   1.998       .  S
Al97        O110   1.858   1_455  S
Al97        O107   1.871       .  S
Al97       O1481   1.962   1_455  S
Al97        O102   1.756       .  S
O98         C105   1.257       .  A
O98        Al106   1.866       .  S
O99         C108   1.253       .  A
O99        Al106   1.873       .  S
O100       Al106   2.004       .  S
O101        C108   1.275       .  A
O102       Al106   1.759       .  S
O103        C104   1.256       .  A
O103      Al1485   1.869       .  S
C104        C292   1.465       .  S
C105        C241   1.485       .  S
C108        C220   1.498       .  S
C109        O110   1.246   1_455  A
C109        C496   1.496   1_455  S
O111        C126   1.275       .  A
O111      Al1511   1.968       .  S
C112        O122   1.277       .  A
C112        O113   1.257       .  A
C112        C208   1.486       .  S
O113       Al115   1.862       .  S
O114        C116   1.274       .  A
O114       Al115   1.956       .  S
Al115       O123   1.990       .  S
Al115       O125   1.862       .  S
Al115       O124   1.763       .  S
C116        O129   1.257       .  A
C116        C145   1.475       .  S
O117        C127   1.281       .  A
O117       Al119   1.995       .  S
O118        C131   1.271       .  A
O118       Al128   1.973       .  S
Al119       O132   1.869       .  S
Al119       O129   1.872       .  S
Al119      O1503   1.968       .  S
Al119       O124   1.759       .  S
O120        C127   1.258       .  A
O120       Al128   1.861       .  S
O121        C130   1.251       .  A
O121       Al128   1.860       .  S
O122       Al128   2.000       .  S
O123        C130   1.277       .  A
O124       Al128   1.760       .  S
O125       C1518   1.256       .  A
C126       O1517   1.256       .  A
C126        C229   1.468   1_655  S
C127        C277   1.480       .  S
C130        C169   1.490       .  S
C131        O132   1.250       .  A
C131        C136   1.492       .  S
C133        C134   1.396       .  A
C133       C1530   1.413   1_455  A
C134        C135   1.402       .  A
C134        H139   1.085       .  S
C135       C1528   1.425   1_455  A
C135        C142   1.445       .  S
C136        C137   1.403       .  A
C136       C1527   1.425       .  A
C137        C138   1.399       .  A
C137        H140   1.083       .  S
C138       C1525   1.413       .  A
C138        C141   1.444       .  S
C141        N143   1.157       .  T
C142        N144   1.157       .  T
C145        C146   1.391       .  A
C145       C1542   1.415       .  A
C146        C147   1.397       .  A
C146        H151   1.086       .  S
C147       C1540   1.431       .  A
C147        C154   1.446   1_554  S
C148        C457   1.496   1_654  S
C148        C149   1.403   1_655  A
C148       C1539   1.431       .  A
C149        C150   1.404       .  A
C149        H152   1.084       .  S
C150       C1537   1.415   1_455  A
C150        C153   1.444       .  S
C153        N155   1.157       .  T
C154        N504   1.158       .  T
N156        C502   1.158       .  T
C157        C158   1.393       .  A
C157        C162   1.424       .  A
C158        C159   1.402       .  A
C158        H163   1.085       .  S
C159        C160   1.425       .  A
C159        C166   1.443       .  S
C160        C161   1.397       .  A
C161        C162   1.406       .  A
C161        H164   1.085       .  S
C162        C165   1.443       .  S
C165        N167   1.158       .  T
C166        N168   1.157       .  T
C169        C170   1.404       .  A
C169        C174   1.426       .  A
C170        C171   1.402       .  A
C170        H175   1.086       .  S
C171        C172   1.413       .  A
C171        C178   1.443       .  S
C172        C173   1.392       .  A
C173        C174   1.397       .  A
C173        H176   1.086       .  S
C174        C177   1.446       .  S
C177        N179   1.157       .  T
C178        N180   1.157   1_545  T
C181        C182   1.391       .  A
C181        C186   1.417       .  A
C182        C183   1.400       .  A
C182        H187   1.086       .  S
C183        C184   1.434       .  A
C183        C190   1.445       .  S
C184        C761   1.507       .  S
C184        C881   1.406       .  A
C185        C880   1.405   1_545  A
C185        C882   1.410       .  A
C185        H188   1.084       .  S
C186        C881   1.411       .  A
C186        C885   1.444       .  S
C189        C882   1.443       .  S
C189        N191   1.157       .  T
C190        N192   1.158       .  T
C193        C194   1.402       .  A
C193        C198   1.420       .  A
C194        C891   1.402       .  A
C194        H199   1.079       .  S
C195        C890   1.403       .  A
C195        C892   1.414       .  A
C195        C202   1.444       .  S
C196        C746   1.488       .  S
C196        C197   1.403       .  A
C196        C891   1.414       .  A
C197        C198   1.411       .  A
C197        H200   1.085       .  S
C198        C201   1.443       .  S
C201        N203   1.157       .  T
C202        N204   1.157       .  T
C205        C206   1.411       .  A
C205        C210   1.416       .  A
C206        C207   1.396       .  A
C206        H211   1.081       .  S
C207        C208   1.410       .  A
C207        C214   1.447       .  S
C208        C209   1.409       .  A
C209        C210   1.414       .  A
C209        H212   1.079       .  S
C210        C213   1.440       .  S
C213        N911   1.156       .  T
C214        N216   1.157       .  T
N215        C909   1.156       .  T
C217        C218   1.404       .  A
C217        C222   1.402       .  A
C218        C219   1.404       .  A
C218        H223   1.085       .  S
C219        C220   1.413       .  A
C219        C226   1.440       .  S
C220        C221   1.416       .  A
C221        C222   1.401       .  A
C221        H224   1.084       .  S
C222        C573   1.444       .  S
C225        C570   1.444   1_554  S
C225        N227   1.157       .  T
C226        N228   1.156       .  T
C229        C230   1.398       .  A
C229        C234   1.410       .  A
C230        C231   1.401       .  A
C230        H235   1.085       .  S
C231        C232   1.418       .  A
C231        C238   1.444       .  S
C232        C233   1.406       .  A
C233        C234   1.401       .  A
C233        H236   1.084       .  S
C234        C237   1.445       .  S
C237        N239   1.157       .  T
C238        N240   1.157       .  T
C241        C242   1.397       .  A
C241        C246   1.422       .  A
C242        C591   1.406       .  A
C242        H247   1.085       .  S
C243        C244   1.422   1_556  A
C243        C590   1.406       .  A
C243        C250   1.444       .  S
C244        C593   1.396       .  A
C245        C246   1.402       .  A
C245        C592   1.396       .  A
C245        H596   1.085       .  S
C246        C249   1.443       .  S
H248        C593   1.085       .  S
C249        N251   1.157       .  T
C250        N252   1.157       .  T
C253        C254   1.408       .  A
C253        C258   1.408       .  A
C254        C255   1.412       .  A
C254        H259   1.085       .  S
C255        C256   1.418       .  A
C255        C262   1.443       .  S
C256        C257   1.412       .  A
C257        C258   1.399       .  A
C257        H260   1.084       .  S
C258        C261   1.445       .  S
C261        N263   1.157       .  T
C262        N264   1.157       .  T
C265        C266   1.405   1_554  A
C265        C270   1.418       .  A
C266        C267   1.403   1_556  A
C266        H619   1.085       .  S
C267        C268   1.411       .  A
C267        C622   1.444   1_554  S
C268        C269   1.401       .  A
C269        C270   1.405       .  A
C269        H272   1.085       .  S
C270        C273   1.444       .  S
H271        C614   1.085       .  S
C273        N275   1.157       .  T
C274        C615   1.443       .  S
C274        N276   1.157       .  T
C277        C278   1.397       .  A
C277        C282   1.422       .  A
C278        C279   1.404       .  A
C278        H283   1.085       .  S
C279        C280   1.421       .  A
C279        C286   1.444       .  S
C280        C281   1.393       .  A
C281        C282   1.398       .  A
C281        H284   1.085       .  S
C282        C285   1.443       .  S
C285        N287   1.157       .  T
C286        N288   1.157       .  T
C289        C290   1.405       .  A
C289        C294   1.420       .  A
C290        C291   1.397       .  A
C290        H295   1.084       .  S
C291        C292   1.408       .  A
C291        C298   1.444       .  S
C292        C293   1.398       .  A
C293        C294   1.401       .  A
C293        H296   1.085       .  S
C294        C297   1.445       .  S
C297        N299   1.157       .  T
C298        N300   1.157       .  T
C301        C302   1.401       .  A
C301        C306   1.430       .  A
C302        C303   1.401       .  A
C302        H307   1.085       .  S
C303        C304   1.416       .  A
C303        C658   1.444       .  S
C304        C376   1.470       .  S
C304        C305   1.390       .  A
C305        C306   1.395       .  A
C305        H308   1.086       .  S
C306        C309   1.446       .  S
C309        N311   1.158       .  T
C310        C651   1.444   1_554  S
C310        N312   1.157       .  T
C313        C314   1.412       .  A
C313        C318   1.401       .  A
C314        C315   1.404       .  A
C314        H319   1.085       .  S
C315        C316   1.405       .  A
C315        C322   1.443       .  S
C316        C317   1.415       .  A
C317        C318   1.396       .  A
C317        H320   1.084       .  S
C318        C321   1.445       .  S
C321        N323   1.157       .  T
C322        N324   1.157       .  T
C325        C326   1.408       .  A
C325        C330   1.406       .  A
C326        C327   1.411       .  A
C326        H331   1.084       .  S
C327        C328   1.417       .  A
C327        C334   1.443       .  S
C328        C329   1.413       .  A
C329        C330   1.399       .  A
C329        H332   1.084       .  S
C330        C333   1.445       .  S
C333        N335   1.157       .  T
C334        N336   1.157       .  T
C337        C338   1.402       .  A
C337        C342   1.401       .  A
C338        C339   1.402       .  A
C338        H343   1.085       .  S
C339        C340   1.416       .  A
C339        C346   1.443       .  S
C340        C341   1.414       .  A
C341        C342   1.398       .  A
C341        H344   1.084       .  S
C342        C345   1.445       .  S
C345        N347   1.157       .  T
C346        N348   1.157       .  T
O349        C364   1.272       .  A
O349       Al357   1.963       .  S
C350        O360   1.277       .  A
C350        O351   1.258       .  A
C350        C628   1.479       .  S
O351       Al353   1.867       .  S
O352        C354   1.278       .  A
O352       Al353   1.968       .  S
Al353       O361   1.970       .  S
Al353       O363   1.865       .  S
Al353       O362   1.764       .  S
C354        O367   1.258       .  A
C354        C661   1.476       .  S
O355        C365   1.278       .  A
O355       Al357   2.001       .  S
O356        C369   1.276       .  A
O356       Al366   1.992       .  S
Al357       O370   1.859       .  S
Al357       O367   1.863       .  S
Al357       O362   1.755       .  S
O358        C365   1.255       .  A
O358       Al366   1.864       .  S
O359        C368   1.254       .  A
O359       Al366   1.869       .  S
O360       Al366   1.980       .  S
O361        C368   1.275       .  A
O362       Al366   1.759       .  S
O363        C364   1.254       .  A
C364        C685   1.465       .  S
C365        C673   1.480       .  S
C368        C637   1.484       .  S
C369        O370   1.248       .  A
C369        C649   1.489       .  S
O371        C386   1.272       .  A
O371       Al379   1.967       .  S
C372        O382   1.277       .  A
C372        O373   1.258       .  A
C372        C592   1.488       .  S
O373       Al375   1.874       .  S
O374        C376   1.277       .  A
O374       Al375   1.963       .  S
Al375       O383   1.974       .  S
Al375       O385   1.887       .  S
Al375       O384   1.764       .  S
C376        O389   1.257       .  A
O377        C387   1.279       .  A
O377       Al379   2.001       .  S
O378        C391   1.276       .  A
O378       Al388   1.993       .  S
Al379       O392   1.863       .  S
Al379       O389   1.861       .  S
Al379       O384   1.759       .  S
O380        C387   1.258       .  A
O380       Al388   1.870       .  S
O381        C390   1.256       .  A
O381       Al388   1.871       .  S
O382       Al388   1.986       .  S
O383        C390   1.276       .  A
O384       Al388   1.763       .  S
O385        C386   1.258       .  A
C386        C616   1.479       .  S
C387        C601   1.485       .  S
C390        C580   1.485       .  S
C391        O392   1.251       .  A
C391        C664   1.486       .  S
O393      Al1097   1.966       .  S
C394        O404   1.278       .  A
C394        O395   1.259       .  A
C394        C676   1.502       .  S
O395       Al397   1.874       .  S
O396        C398   1.275       .  A
O396       Al397   1.975       .  S
Al397       O405   1.987       .  S
Al397      O1103   1.866       .  S
C398       O1107   1.259       .  A
C398       C1240   1.485   1_545  S
O399        C409   1.283       .  A
O399       Al401   2.017       .  S
O400        C413   1.278       .  A
O400       Al410   2.019       .  S
Al401      O1089   1.963   1_545  S
Al401      O1110   1.864       .  S
Al401       O759   1.882       .  S
Al401       O406   1.755       .  S
O402        C409   1.256       .  A
O402       Al410   1.855       .  S
O403        C412   1.261       .  A
O403       Al410   1.877       .  S
O406       Al410   1.766       .  S
O407        C408   1.256       .  A
O407      Al1093   1.866       .  S
C408        C565   1.475       .  S
C409        C553   1.501       .  S
O411       C1094   1.260       .  A
O411       Al749   1.889   1_556  S
C412        C613   1.490       .  S
C413       O1110   1.246       .  A
C413       C1228   1.505   1_545  S
O414       C1109   1.247       .  A
O414      Al1097   1.864       .  S
O415       C1126   1.277       .  A
O415       Al423   1.966       .  S
C416        O426   1.279       .  A
C416        O417   1.260       .  A
C416        C604   1.504       .  S
O417       Al419   1.874       .  S
O418        C420   1.272       .  A
O418       Al419   1.957       .  S
Al419       O427   1.984       .  S
Al419       O429   1.859       .  S
Al419       O428   1.770       .  S
C420        O433   1.259       .  A
C420        C529   1.484       .  S
O421        C431   1.284       .  A
O421       Al423   2.009       .  S
O422        C435   1.272       .  A
O422       Al432   1.985       .  S
Al423       O436   1.880       .  S
Al423       O433   1.884       .  S
Al423       O428   1.761       .  S
O424        C431   1.258       .  A
O424       Al432   1.863       .  S
O425        C434   1.256       .  A
O425       Al432   1.870       .  S
O426       Al432   2.005       .  S
O427        C434   1.276       .  A
O428       Al432   1.765       .  S
O429       C1126   1.256       .  A
C430       O1111   1.277       .  A
C430       O1125   1.257       .  A
C430        C520   1.471   1_565  S
C431        C508   1.489       .  S
C434        C688   1.491       .  S
C435        O436   1.251       .  A
C435        C541   1.499       .  S
O437        C452   1.272       .  A
O437      Al1837   1.962       .  S
C438        O448   1.283       .  A
C438        O439   1.257       .  A
C438        C505   1.486       .  S
O439       Al441   1.862       .  S
O440        C442   1.276       .  A
O440       Al441   1.972       .  S
Al441       O449   1.992       .  S
Al441      O1843   1.869       .  S
Al441       O450   1.767       .  S
C442        O455   1.258       .  A
C442        C481   1.473       .  S
O443        C453   1.279       .  A
O443       Al445   1.997       .  S
O444        C457   1.276       .  A
O444       Al454   1.998       .  S
Al445      O1829   1.962   1_455  S
Al445       O458   1.858   1_455  S
Al445       O455   1.871       .  S
Al445       O450   1.756       .  S
O446        C453   1.257       .  A
O446       Al454   1.866       .  S
O447        C456   1.253       .  A
O447       Al454   1.873       .  S
O448       Al454   2.004       .  S
O449        C456   1.275       .  A
O450       Al454   1.759       .  S
O451        C452   1.256       .  A
O451      Al1833   1.869       .  S
C452        C640   1.465       .  S
C453        C589   1.485       .  S
C456        C568   1.498       .  S
C457        O458   1.246   1_455  A
O459        C474   1.275       .  A
O459      Al1859   1.968       .  S
C460        O470   1.277       .  A
C460        O461   1.257       .  A
C460        C556   1.486       .  S
O461       Al463   1.862       .  S
O462        C464   1.274       .  A
O462       Al463   1.956       .  S
Al463       O471   1.990       .  S
Al463       O473   1.862       .  S
Al463       O472   1.763       .  S
C464        O477   1.257       .  A
C464        C493   1.475       .  S
O465        C475   1.281       .  A
O465       Al467   1.995       .  S
O466        C479   1.271       .  A
O466       Al476   1.973       .  S
Al467      O1851   1.968       .  S
Al467       O480   1.869       .  S
Al467       O477   1.872       .  S
Al467       O472   1.759       .  S
O468        C475   1.258       .  A
O468       Al476   1.861       .  S
O469        C478   1.251       .  A
O469       Al476   1.860       .  S
O470       Al476   2.000       .  S
O471        C478   1.277       .  A
O472       Al476   1.760       .  S
O473       C1866   1.256       .  A
C474       O1865   1.256       .  A
C474        C577   1.468   1_655  S
C475        C625   1.480       .  S
C478        C517   1.490       .  S
C479        O480   1.250       .  A
C479        C484   1.492       .  S
C481        C482   1.396       .  A
C481       C1878   1.413   1_455  A
C482        C483   1.402       .  A
C482        H487   1.085       .  S
C483       C1876   1.425   1_455  A
C483        C490   1.445       .  S
C484       C1875   1.425       .  A
C484        C485   1.403       .  A
C485        C486   1.399       .  A
C485        H488   1.083       .  S
C486       C1873   1.413       .  A
C486        C489   1.444       .  S
C489        N491   1.157       .  T
C490        N492   1.157       .  T
C493        C494   1.391       .  A
C493       C1890   1.415       .  A
C494        C495   1.397       .  A
C494        H499   1.086       .  S
C495       C1888   1.431       .  A
C495        C502   1.446       .  S
C496       C1887   1.431       .  A
C496        C497   1.403   1_655  A
C497        C498   1.404       .  A
C497        H500   1.084       .  S
C498       C1885   1.415   1_455  A
C498        C501   1.444       .  S
C501        N503   1.157       .  T
C505        C506   1.393       .  A
C505        C510   1.424       .  A
C506        C507   1.402       .  A
C506        H511   1.085       .  S
C507        C508   1.425       .  A
C507        C514   1.443       .  S
C508        C509   1.397       .  A
C509        C510   1.406       .  A
C509        H512   1.085       .  S
C510        C513   1.443       .  S
C513        N515   1.158       .  T
C514        N516   1.157       .  T
C517        C518   1.404       .  A
C517        C522   1.426       .  A
C518        C519   1.402       .  A
C518        H523   1.086       .  S
C519        C520   1.413       .  A
C519        C526   1.443       .  S
C520        C521   1.392       .  A
C521        C522   1.397       .  A
C521        H524   1.086       .  S
C522        C525   1.446       .  S
C525        N527   1.158       .  T
C526        N528   1.157   1_545  T
C529        C530   1.391       .  A
C529        C534   1.417       .  A
C530        C531   1.400       .  A
C530        H535   1.086       .  S
C531        C532   1.434       .  A
C531        C538   1.445       .  S
C532       C1109   1.507       .  S
C532       C1229   1.406       .  A
C533       C1228   1.405   1_545  A
C533       C1230   1.410       .  A
C533        H536   1.084       .  S
C534       C1229   1.411       .  A
C534       C1233   1.444       .  S
C537       C1230   1.443       .  S
C537        N539   1.157       .  T
C538        N540   1.158       .  T
C541        C542   1.402       .  A
C541        C546   1.420       .  A
C542       C1239   1.402       .  A
C542        H547   1.079       .  S
C543       C1238   1.403       .  A
C543       C1240   1.414       .  A
C543        C550   1.444       .  S
C544       C1094   1.488       .  S
C544       C1239   1.414       .  A
C544        C545   1.403       .  A
C545        C546   1.411       .  A
C545        H548   1.085       .  S
C546        C549   1.443       .  S
C549        N551   1.157       .  T
C550        N552   1.157       .  T
C553        C554   1.411       .  A
C553        C558   1.416       .  A
C554        C555   1.396       .  A
C554        H559   1.081       .  S
C555        C556   1.410       .  A
C555        C562   1.447       .  S
C556        C557   1.409       .  A
C557        C558   1.414       .  A
C557        H560   1.079       .  S
C558        C561   1.440       .  S
C561       N1259   1.156       .  T
C562        N564   1.157       .  T
N563       C1257   1.156       .  T
C565        C566   1.404       .  A
C565        C570   1.402       .  A
C566        C567   1.404       .  A
C566        H571   1.085       .  S
C567        C568   1.413       .  A
C567        C574   1.440       .  S
C568        C569   1.416       .  A
C569        C570   1.401       .  A
C569        H572   1.084       .  S
C573        N575   1.157       .  T
C574        N576   1.156       .  T
C577        C578   1.398       .  A
C577        C582   1.410       .  A
C578        C579   1.401       .  A
C578        H583   1.085       .  S
C579        C580   1.418       .  A
C579        C586   1.444       .  S
C580        C581   1.406       .  A
C581        C582   1.401       .  A
C581        H584   1.084       .  S
C582        C585   1.445       .  S
C585        N587   1.157       .  T
C586        N588   1.157       .  T
C589        C590   1.397       .  A
C589        C594   1.422   1_556  A
C590        H595   1.085       .  S
C591        C592   1.423       .  A
C591        C598   1.444       .  S
C593        C594   1.402       .  A
C594        C597   1.443       .  S
C597        N599   1.157       .  T
C598        N600   1.157       .  T
C601        C602   1.408       .  A
C601        C606   1.408       .  A
C602        C603   1.412       .  A
C602        H607   1.085       .  S
C603        C604   1.418       .  A
C603        C610   1.443       .  S
C604        C605   1.412       .  A
C605        C606   1.399       .  A
C605        H608   1.084       .  S
C606        C609   1.445       .  S
C609        N611   1.157       .  T
C610        N612   1.157       .  T
C613        C614   1.405       .  A
C613        C618   1.418       .  A
C614        C615   1.403       .  A
C615        C616   1.411       .  A
C616        C617   1.401       .  A
C617        C618   1.405       .  A
C617        H620   1.085       .  S
C618        C621   1.444       .  S
C621        N623   1.157       .  T
C622        N624   1.157       .  T
C625        C626   1.397       .  A
C625        C630   1.422       .  A
C626        C627   1.404       .  A
C626        H631   1.085       .  S
C627        C628   1.421       .  A
C627        C634   1.444       .  S
C628        C629   1.393       .  A
C629        C630   1.398       .  A
C629        H632   1.085       .  S
C630        C633   1.443       .  S
C633        N635   1.157       .  T
C634        N636   1.157       .  T
C637        C638   1.405       .  A
C637        C642   1.420       .  A
C638        C639   1.397       .  A
C638        H643   1.084       .  S
C639        C640   1.408       .  A
C639        C646   1.444       .  S
C640        C641   1.398       .  A
C641        C642   1.401       .  A
C641        H644   1.085       .  S
C642        C645   1.445       .  S
C645        N647   1.157       .  T
C646        N648   1.157       .  T
C649        C650   1.401       .  A
C649        C654   1.430       .  A
C650        C651   1.401       .  A
C650        H655   1.085       .  S
C651        C652   1.416       .  A
C652        C653   1.390       .  A
C653        C654   1.395       .  A
C653        H656   1.086       .  S
C654        C657   1.446       .  S
C657        N659   1.158       .  T
C658        N660   1.157       .  T
C661        C662   1.412       .  A
C661        C666   1.401       .  A
C662        C663   1.404       .  A
C662        H667   1.085       .  S
C663        C664   1.405       .  A
C663        C670   1.443       .  S
C664        C665   1.415       .  A
C665        C666   1.396       .  A
C665        H668   1.084       .  S
C666        C669   1.445       .  S
C669        N671   1.157       .  T
C670        N672   1.157       .  T
C673        C674   1.408       .  A
C673        C678   1.406       .  A
C674        C675   1.411       .  A
C674        H679   1.084       .  S
C675        C676   1.417       .  A
C675        C682   1.443       .  S
C676        C677   1.413       .  A
C677        C678   1.399       .  A
C677        H680   1.084       .  S
C678        C681   1.445       .  S
C681        N683   1.157       .  T
C682        N684   1.157   1_556  T
C685        C686   1.402       .  A
C685        C690   1.401       .  A
C686        C687   1.402       .  A
C686        H691   1.085       .  S
C687        C688   1.416       .  A
C687        C694   1.443       .  S
C688        C689   1.414       .  A
C689        C690   1.398       .  A
C689        H692   1.084       .  S
C690        C693   1.445       .  S
C693        N695   1.157       .  T
C694        N696   1.157       .  T
O697        C712   1.273       .  A
O697       Al705   1.967       .  S
C698        O708   1.277       .  A
C698        O699   1.258       .  A
C698        C976   1.478       .  S
O699       Al701   1.867       .  S
O700        C702   1.276       .  A
O700       Al701   1.965       .  S
Al701       O709   1.967       .  S
Al701       O711   1.871       .  S
Al701       O710   1.764       .  S
C702        O715   1.259       .  A
C702       C1009   1.474       .  S
O703        C713   1.279       .  A
O703       Al705   2.005       .  S
O704        C717   1.277       .  A
O704       Al714   1.994       .  S
Al705       O718   1.859       .  S
Al705       O715   1.865       .  S
Al705       O710   1.756       .  S
O706        C713   1.256       .  A
O706       Al714   1.867       .  S
O707        C716   1.256       .  A
O707       Al714   1.873       .  S
O708       Al714   1.979       .  S
O709        C716   1.275       .  A
O710       Al714   1.762       .  S
O711        C712   1.256       .  A
C712       C1033   1.470       .  S
C713       C1021   1.485       .  S
C716        C985   1.485       .  S
C717        O718   1.248       .  A
C717        C997   1.491       .  S
O719        C734   1.272       .  A
O719       Al727   1.970       .  S
C720        O730   1.276       .  A
C720        O721   1.258       .  A
C720        C940   1.484       .  S
O721       Al723   1.872       .  S
O722        C724   1.277       .  A
O722       Al723   1.964       .  S
Al723       O731   1.975       .  S
Al723       O733   1.885       .  S
Al723       O732   1.765       .  S
C724        O737   1.257       .  A
C724       C1348   1.470   1_554  S
O725        C735   1.279       .  A
O725       Al727   2.002       .  S
O726        C739   1.275       .  A
O726       Al736   1.990       .  S
Al727       O740   1.863       .  S
Al727       O737   1.861       .  S
Al727       O732   1.758       .  S
O728        C735   1.257       .  A
O728       Al736   1.871       .  S
O729        C738   1.255       .  A
O729       Al736   1.869       .  S
O730       Al736   1.982       .  S
O731        C738   1.276       .  A
O732       Al736   1.764       .  S
O733        C734   1.258       .  A
C734        C964   1.480       .  S
C735        C949   1.484       .  S
C738        C928   1.485       .  S
C739        O740   1.251       .  A
C739       C1012   1.486       .  S
O741       C1104   1.274       .  A
C742        O752   1.279       .  A
C742        O743   1.260       .  A
C742       C1024   1.504       .  S
O743       Al745   1.877       .  S
O744        C746   1.277       .  A
O744       Al745   1.981       .  S
Al745       O753   1.993       .  S
Al745      O1102   1.761       .  S
O747        C757   1.283       .  A
O747       Al749   2.020       .  S
O748        C761   1.279       .  A
O748       Al758   2.021       .  S
Al749       O754   1.756   1_554  S
O750        C757   1.255       .  A
O750       Al758   1.854       .  S
O751        C760   1.260       .  A
O751       Al758   1.875       .  S
O752      Al1106   1.998       .  S
O753       C1108   1.281       .  A
O754      Al1093   1.761       .  S
O754       Al758   1.763   1_556  S
O755        C756   1.256   1_545  A
C756       O1089   1.274       .  A
C756        C913   1.474       .  S
C757        C901   1.502       .  S
Al758      O1100   1.998   1_554  S
C760       O1101   1.281   1_554  A
C760        C961   1.494       .  S
O763       Al771   1.969       .  S
C764        O774   1.280       .  A
C764        O765   1.260       .  A
C764        C952   1.503       .  S
O765       Al767   1.873       .  S
O766        C768   1.273       .  A
O766       Al767   1.961       .  S
Al767       O775   1.988       .  S
Al767       O777   1.863       .  S
Al767       O776   1.769       .  S
C768        O781   1.260       .  A
C768        C877   1.484       .  S
O769        C779   1.285       .  A
O769       Al771   2.016       .  S
O770        C783   1.274       .  A
O770       Al780   1.992       .  S
Al771       O784   1.870       .  S
Al771       O781   1.883       .  S
Al771       O776   1.760       .  S
O772        C779   1.257       .  A
O772       Al780   1.863       .  S
O773        C782   1.256       .  A
O773       Al780   1.871       .  S
O774       Al780   2.004       .  S
O775        C782   1.276       .  A
O776       Al780   1.764       .  S
C778        C868   1.471       .  S
C779        C856   1.492       .  S
C782       C1036   1.494       .  S
C783        O784   1.249       .  A
C783        C889   1.502       .  S
O785        C800   1.273       .  A
O785      Al2185   1.963       .  S
C786        O796   1.282       .  A
C786        O787   1.258       .  A
C786        C853   1.492       .  S
O787       Al789   1.869       .  S
O788        C790   1.276       .  A
O788       Al789   1.972       .  S
Al789       O797   1.988       .  S
Al789      O2191   1.868       .  S
Al789       O798   1.768       .  S
C790        O803   1.258       .  A
C790        C829   1.474       .  S
O791        C801   1.279       .  A
O791       Al793   1.995       .  S
O792        C805   1.276       .  A
O792       Al802   2.000       .  S
Al793      O2177   1.963   1_455  S
Al793       O806   1.861       .  S
Al793       O803   1.873       .  S
Al793       O798   1.759       .  S
O794        C801   1.258       .  A
O794       Al802   1.868       .  S
O795        C804   1.254       .  A
O795       Al802   1.872       .  S
O796       Al802   2.006       .  S
O797        C804   1.275       .  A
O798       Al802   1.759       .  S
O799        C800   1.256       .  A
O799      Al2181   1.868       .  S
C800        C988   1.467       .  S
C801        C937   1.486       .  S
C804        C916   1.497       .  S
C805        O806   1.248       .  A
C805       C1192   1.501       .  S
O807        C822   1.274       .  A
O807      Al2207   1.963       .  S
C808        O818   1.278       .  A
C808        O809   1.258       .  A
C808        C904   1.487       .  S
O809       Al811   1.866       .  S
O810        C812   1.274       .  A
O810       Al811   1.965       .  S
Al811       O819   1.997       .  S
Al811       O821   1.863       .  S
Al811       O820   1.764       .  S
C812        O825   1.259       .  A
C812        C841   1.481       .  S
O813        C823   1.282       .  A
O813       Al815   1.996       .  S
O814        C827   1.271       .  A
O814       Al824   1.975       .  S
Al815      O2199   1.963       .  S
Al815       O828   1.868       .  S
Al815       O825   1.879       .  S
Al815       O820   1.759       .  S
O816        C823   1.259       .  A
O816       Al824   1.860       .  S
O817        C826   1.250       .  A
O817       Al824   1.859       .  S
O818       Al824   2.001       .  S
O819        C826   1.278       .  A
O820       Al824   1.761       .  S
O821       C2214   1.256       .  A
C822       O2213   1.256       .  A
C822        C925   1.468   1_655  S
C823        C973   1.480       .  S
C826        C865   1.492       .  S
C827        O828   1.249       .  A
C827        C832   1.492       .  S
C829        C830   1.396       .  A
C829       C2226   1.414   1_455  A
C830        C831   1.403       .  A
C830        H835   1.085       .  S
C831       C2224   1.424   1_455  A
C831        C838   1.445       .  S
C832       C2223   1.424       .  A
C832        C833   1.402       .  A
C833        C834   1.400       .  A
C833        H836   1.082       .  S
C834       C2221   1.413       .  A
C834        C837   1.444       .  S
C837        N839   1.157       .  T
C838        N840   1.157       .  T
C841        C842   1.394       .  A
C841       C2238   1.415       .  A
C842        C843   1.402       .  A
C842        H847   1.085       .  S
C843       C2236   1.430       .  A
C843        C850   1.446   1_554  S
C844       C1153   1.501   1_654  S
C844       C2235   1.430       .  A
C844        C845   1.404   1_655  A
C845        C846   1.406       .  A
C845        H848   1.084       .  S
C846       C2233   1.415   1_455  A
C846        C849   1.444       .  S
C849        N851   1.157       .  T
C850       N1200   1.158       .  T
N852       C1198   1.158       .  T
C853        C854   1.394       .  A
C853        C858   1.425       .  A
C854        C855   1.403       .  A
C854        H859   1.085       .  S
C855        C856   1.426       .  A
C855        C862   1.442       .  S
C856        C857   1.398       .  A
C857        C858   1.409       .  A
C857        H860   1.085       .  S
C858        C861   1.443       .  S
C861        N863   1.158       .  T
C862        N864   1.158       .  T
C865        C866   1.404       .  A
C865        C870   1.427       .  A
C866        C867   1.404       .  A
C866        H871   1.086       .  S
C867        C868   1.414       .  A
C867        C874   1.443       .  S
C868        C869   1.391       .  A
C869        C870   1.396       .  A
C869        H872   1.086       .  S
C870        C873   1.446       .  S
C873        N875   1.157       .  T
C874        N876   1.157       .  T
C877        C878   1.391       .  A
C877        C882   1.417   1_565  A
C878        C879   1.400       .  A
C878        H883   1.086       .  S
C879        C880   1.433       .  A
C879        C886   1.445       .  S
C881        H884   1.084       .  S
C885        N887   1.157       .  T
C886        N888   1.158       .  T
C889        C890   1.403       .  A
C889        C894   1.425   1_565  A
C890        H895   1.080       .  S
C891        C898   1.443       .  S
C892        C893   1.399   1_565  A
C893        C894   1.408       .  A
C893        H896   1.085       .  S
C894        C897   1.444       .  S
C897        N899   1.157       .  T
C898        N900   1.157       .  T
C901        C902   1.412       .  A
C901        C906   1.416       .  A
C902        C903   1.396       .  A
C902        H907   1.081       .  S
C903        C904   1.409       .  A
C903        C910   1.447       .  S
C904        C905   1.409       .  A
C905        C906   1.415       .  A
C905        H908   1.079       .  S
C906        C909   1.440       .  S
C910        N912   1.157       .  T
C913        C914   1.404       .  A
C913        C918   1.403       .  A
C914        C915   1.404       .  A
C914        H919   1.085       .  S
C915        C916   1.413       .  A
C915        C922   1.441       .  S
C916        C917   1.415       .  A
C917        C918   1.401       .  A
C917        H920   1.084       .  S
C918       C1269   1.444       .  S
C921       C1266   1.444   1_554  S
C921        N923   1.157       .  T
C922        N924   1.157       .  T
C925        C926   1.398       .  A
C925        C930   1.409       .  A
C926        C927   1.402       .  A
C926        H931   1.085       .  S
C927        C928   1.420       .  A
C927        C934   1.445       .  S
C928        C929   1.405       .  A
C929        C930   1.399       .  A
C929        H932   1.084       .  S
C930        C933   1.445       .  S
C933        N935   1.157   1_455  T
C934        N936   1.157       .  T
C937        C938   1.398       .  A
C937        C942   1.423       .  A
C938       C1287   1.406       .  A
C938        H943   1.085       .  S
C939       C1286   1.406       .  A
C939        C940   1.421   1_556  A
C939        C946   1.444       .  S
C940       C1289   1.394       .  A
C941       C1288   1.394       .  A
C941        C942   1.401       .  A
C941       H1292   1.085       .  S
C942        C945   1.443       .  S
H944       C1289   1.085       .  S
C945        N947   1.157       .  T
C946        N948   1.157       .  T
C949        C950   1.408       .  A
C949        C954   1.408       .  A
C950        C951   1.411       .  A
C950        H955   1.084       .  S
C951        C952   1.418       .  A
C951        C958   1.443       .  S
C952        C953   1.413       .  A
C953        C954   1.400       .  A
C953        H956   1.084       .  S
C954        C957   1.445       .  S
C957        N959   1.157       .  T
C958        N960   1.157       .  T
C961        C962   1.406   1_554  A
C961        C966   1.420       .  A
C962        C963   1.405   1_556  A
C962       H1315   1.085       .  S
C963        C964   1.413       .  A
C963       C1318   1.444   1_554  S
C964        C965   1.399       .  A
C965        C966   1.405       .  A
C965        H968   1.085       .  S
C966        C969   1.444       .  S
H967       C1310   1.085       .  S
C969        N971   1.157       .  T
C970       C1311   1.444       .  S
C970        N972   1.157       .  T
C973        C974   1.396       .  A
C973        C978   1.423       .  A
C974        C975   1.404       .  A
C974        H979   1.085       .  S
C975        C976   1.421       .  A
C975        C982   1.444       .  S
C976        C977   1.393       .  A
C977        C978   1.398       .  A
C977        H980   1.085       .  S
C978        C981   1.443       .  S
C981        N983   1.158       .  T
C982        N984   1.157       .  T
C985        C986   1.406       .  A
C985        C990   1.419       .  A
C986        C987   1.398       .  A
C986        H991   1.084       .  S
C987        C988   1.409       .  A
C987        C994   1.445       .  S
C988        C989   1.398       .  A
C989        C990   1.402       .  A
C989        H992   1.085       .  S
C990        C993   1.444       .  S
C993        N995   1.157       .  T
C994        N996   1.157       .  T
C997        C998   1.402       .  A
C997       C1002   1.431       .  A
C998        C999   1.401       .  A
C998       H1003   1.085       .  S
C999       C1000   1.416       .  A
C999       C1354   1.444       .  S
C1000      C1072   1.470       .  S
C1000      C1001   1.390       .  A
C1001      C1002   1.396       .  A
C1001      H1004   1.086       .  S
C1002      C1005   1.446       .  S
C1005      N1007   1.158       .  T
C1006      C1347   1.444   1_554  S
C1006      N1008   1.157       .  T
C1009      C1010   1.411       .  A
C1009      C1014   1.401       .  A
C1010      C1011   1.404       .  A
C1010      H1015   1.085       .  S
C1011      C1012   1.406       .  A
C1011      C1018   1.443       .  S
C1012      C1013   1.415       .  A
C1013      C1014   1.396       .  A
C1013      H1016   1.084       .  S
C1014      C1017   1.445       .  S
C1017      N1019   1.157       .  T
C1018      N1020   1.157       .  T
C1021      C1022   1.408       .  A
C1021      C1026   1.408       .  A
C1022      C1023   1.412       .  A
C1022      H1027   1.084       .  S
C1023      C1024   1.418       .  A
C1023      C1030   1.443       .  S
C1024      C1025   1.412       .  A
C1025      C1026   1.401       .  A
C1025      H1028   1.084       .  S
C1026      C1029   1.445       .  S
C1029      N1031   1.157       .  T
C1030      N1032   1.157       .  T
C1033      C1034   1.403       .  A
C1033      C1038   1.402       .  A
C1034      C1035   1.404       .  A
C1034      H1039   1.085       .  S
C1035      C1036   1.417       .  A
C1035      C1042   1.444       .  S
C1036      C1037   1.414       .  A
C1037      C1038   1.400       .  A
C1037      H1040   1.084       .  S
C1038      C1041   1.444       .  S
C1041      N1043   1.157       .  T
C1042      N1044   1.157       .  T
O1045      C1060   1.273       .  A
O1045     Al1053   1.967       .  S
C1046      O1056   1.277       .  A
C1046      O1047   1.258       .  A
C1046      C1324   1.478       .  S
O1047     Al1049   1.867       .  S
O1048      C1050   1.276       .  A
O1048     Al1049   1.965       .  S
Al1049     O1057   1.967       .  S
Al1049     O1059   1.871       .  S
Al1049     O1058   1.764       .  S
C1050      O1063   1.259       .  A
C1050      C1357   1.474       .  S
O1051      C1061   1.279       .  A
O1051     Al1053   2.005       .  S
O1052      C1065   1.277       .  A
O1052     Al1062   1.994       .  S
Al1053     O1066   1.859       .  S
Al1053     O1063   1.864       .  S
Al1053     O1058   1.756       .  S
O1054      C1061   1.256       .  A
O1054     Al1062   1.867       .  S
O1055      C1064   1.256       .  A
O1055     Al1062   1.873       .  S
O1056     Al1062   1.979       .  S
O1057      C1064   1.275       .  A
O1058     Al1062   1.762       .  S
O1059      C1060   1.256       .  A
C1060      C1381   1.470       .  S
C1061      C1369   1.485       .  S
C1064      C1333   1.485       .  S
C1065      O1066   1.248       .  A
C1065      C1345   1.491       .  S
O1067      C1082   1.272       .  A
O1067     Al1075   1.970       .  S
C1068      O1078   1.276       .  A
C1068      O1069   1.258       .  A
C1068      C1288   1.484       .  S
O1069     Al1071   1.872       .  S
O1070      C1072   1.277       .  A
O1070     Al1071   1.964       .  S
Al1071     O1079   1.975       .  S
Al1071     O1081   1.885       .  S
Al1071     O1080   1.765       .  S
C1072      O1085   1.257       .  A
O1073      C1083   1.279       .  A
O1073     Al1075   2.002       .  S
O1074      C1087   1.275       .  A
O1074     Al1084   1.990       .  S
Al1075     O1088   1.863       .  S
Al1075     O1085   1.861       .  S
Al1075     O1080   1.758       .  S
O1076      C1083   1.257       .  A
O1076     Al1084   1.871       .  S
O1077      C1086   1.255       .  A
O1077     Al1084   1.869       .  S
O1078     Al1084   1.982       .  S
O1079      C1086   1.276       .  A
O1080     Al1084   1.764       .  S
O1081      C1082   1.258       .  A
C1082      C1312   1.480       .  S
C1083      C1297   1.484       .  S
C1086      C1276   1.485       .  S
C1087      O1088   1.251       .  A
C1087      C1360   1.485       .  S
C1090      O1100   1.279       .  A
C1090      O1091   1.260       .  A
C1090      C1372   1.504       .  S
O1091     Al1093   1.877       .  S
O1092      C1094   1.277       .  A
O1092     Al1093   1.981       .  S
Al1093     O1101   1.993       .  S
O1095      C1105   1.283       .  A
O1095     Al1097   2.020       .  S
O1096      C1109   1.279       .  A
O1096     Al1106   2.021       .  S
Al1097     O1102   1.756       .  S
O1098      C1105   1.255       .  A
O1098     Al1106   1.854       .  S
O1099      C1108   1.260       .  A
O1099     Al1106   1.875       .  S
O1102     Al1106   1.763       .  S
O1103      C1104   1.256   1_545  A
C1104      C1261   1.474       .  S
C1105      C1249   1.502       .  S
C1108      C1309   1.494       .  S
O1111     Al1119   1.969       .  S
C1112      O1122   1.280       .  A
C1112      O1113   1.260       .  A
C1112      C1300   1.503       .  S
O1113     Al1115   1.873       .  S
O1114      C1116   1.273       .  A
O1114     Al1115   1.961       .  S
Al1115     O1123   1.988       .  S
Al1115     O1125   1.863       .  S
Al1115     O1124   1.769       .  S
C1116      O1129   1.260       .  A
C1116      C1225   1.484       .  S
O1117      C1127   1.285       .  A
O1117     Al1119   2.016       .  S
O1118      C1131   1.274       .  A
O1118     Al1128   1.992       .  S
Al1119     O1132   1.870       .  S
Al1119     O1129   1.883       .  S
Al1119     O1124   1.760       .  S
O1120      C1127   1.257       .  A
O1120     Al1128   1.863       .  S
O1121      C1130   1.256       .  A
O1121     Al1128   1.871       .  S
O1122     Al1128   2.004       .  S
O1123      C1130   1.276       .  A
O1124     Al1128   1.764       .  S
C1126      C1216   1.471       .  S
C1127      C1204   1.492       .  S
C1130      C1384   1.494       .  S
C1131      O1132   1.249       .  A
C1131      C1237   1.502       .  S
O1133      C1148   1.273       .  A
O1133     Al2533   1.963       .  S
C1134      O1144   1.282       .  A
C1134      O1135   1.258       .  A
C1134      C1201   1.492       .  S
O1135     Al1137   1.869       .  S
O1136      C1138   1.276       .  A
O1136     Al1137   1.972       .  S
Al1137     O1145   1.988       .  S
Al1137     O2539   1.868       .  S
Al1137     O1146   1.768       .  S
C1138      O1151   1.258       .  A
C1138      C1177   1.474       .  S
O1139      C1149   1.279       .  A
O1139     Al1141   1.995       .  S
O1140      C1153   1.276       .  A
O1140     Al1150   2.000       .  S
Al1141     O2525   1.963   1_455  S
Al1141     O1154   1.861       .  S
Al1141     O1151   1.873       .  S
Al1141     O1146   1.759       .  S
O1142      C1149   1.258       .  A
O1142     Al1150   1.868       .  S
O1143      C1152   1.254       .  A
O1143     Al1150   1.872       .  S
O1144     Al1150   2.006       .  S
O1145      C1152   1.275       .  A
O1146     Al1150   1.759       .  S
O1147      C1148   1.256       .  A
O1147     Al2529   1.868       .  S
C1148      C1336   1.467       .  S
C1149      C1285   1.486       .  S
C1152      C1264   1.497       .  S
C1153      O1154   1.248       .  A
O1155      C1170   1.274       .  A
O1155     Al2555   1.963       .  S
C1156      O1166   1.278       .  A
C1156      O1157   1.258       .  A
C1156      C1252   1.487       .  S
O1157     Al1159   1.867       .  S
O1158      C1160   1.274       .  A
O1158     Al1159   1.965       .  S
Al1159     O1167   1.997       .  S
Al1159     O1169   1.863       .  S
Al1159     O1168   1.764       .  S
C1160      O1173   1.259       .  A
C1160      C1189   1.481       .  S
O1161      C1171   1.282       .  A
O1161     Al1163   1.996       .  S
O1162      C1175   1.271       .  A
O1162     Al1172   1.975       .  S
Al1163     O2547   1.963       .  S
Al1163     O1176   1.868       .  S
Al1163     O1173   1.879       .  S
Al1163     O1168   1.759       .  S
O1164      C1171   1.259       .  A
O1164     Al1172   1.860       .  S
O1165      C1174   1.250       .  A
O1165     Al1172   1.859       .  S
O1166     Al1172   2.001       .  S
O1167      C1174   1.278       .  A
O1168     Al1172   1.761       .  S
O1169      C2562   1.256       .  A
C1170      O2561   1.256       .  A
C1170      C1273   1.468   1_655  S
C1171      C1321   1.480       .  S
C1174      C1213   1.492       .  S
C1175      O1176   1.249       .  A
C1175      C1180   1.492       .  S
C1177      C1178   1.396       .  A
C1177      C2574   1.413   1_455  A
C1178      C1179   1.403       .  A
C1178      H1183   1.085       .  S
C1179      C2572   1.424   1_455  A
C1179      C1186   1.445       .  S
C1180      C2571   1.424       .  A
C1180      C1181   1.402       .  A
C1181      C1182   1.400       .  A
C1181      H1184   1.082       .  S
C1182      C2569   1.413       .  A
C1182      C1185   1.444       .  S
C1185      N1187   1.157       .  T
C1186      N1188   1.157       .  T
C1189      C1190   1.394       .  A
C1189      C2586   1.415       .  A
C1190      C1191   1.402       .  A
C1190      H1195   1.085       .  S
C1191      C2584   1.430       .  A
C1191      C1198   1.446       .  S
C1192      C2583   1.430   1_455  A
C1192      C1193   1.404       .  A
C1193      C1194   1.406       .  A
C1193      H1196   1.084       .  S
C1194      C2581   1.415   1_455  A
C1194      C1197   1.444       .  S
C1197      N1199   1.157       .  T
C1201      C1202   1.394       .  A
C1201      C1206   1.425       .  A
C1202      C1203   1.403       .  A
C1202      H1207   1.085       .  S
C1203      C1204   1.426       .  A
C1203      C1210   1.442       .  S
C1204      C1205   1.398       .  A
C1205      C1206   1.409       .  A
C1205      H1208   1.085       .  S
C1206      C1209   1.443       .  S
C1209      N1211   1.158       .  T
C1210      N1212   1.158       .  T
C1213      C1214   1.404       .  A
C1213      C1218   1.427       .  A
C1214      C1215   1.404       .  A
C1214      H1219   1.086       .  S
C1215      C1216   1.414       .  A
C1215      C1222   1.443       .  S
C1216      C1217   1.391       .  A
C1217      C1218   1.396       .  A
C1217      H1220   1.085       .  S
C1218      C1221   1.446       .  S
C1221      N1223   1.157       .  T
C1222      N1224   1.157       .  T
C1225      C1226   1.391       .  A
C1225      C1230   1.417   1_565  A
C1226      C1227   1.400       .  A
C1226      H1231   1.086       .  S
C1227      C1228   1.434       .  A
C1227      C1234   1.445       .  S
C1229      H1232   1.084       .  S
C1233      N1235   1.157       .  T
C1234      N1236   1.158       .  T
C1237      C1238   1.403       .  A
C1237      C1242   1.425   1_565  A
C1238      H1243   1.080       .  S
C1239      C1246   1.443       .  S
C1240      C1241   1.399   1_565  A
C1241      C1242   1.408       .  A
C1241      H1244   1.085       .  S
C1242      C1245   1.444       .  S
C1245      N1247   1.157       .  T
C1246      N1248   1.157       .  T
C1249      C1250   1.412       .  A
C1249      C1254   1.416       .  A
C1250      C1251   1.396       .  A
C1250      H1255   1.081       .  S
C1251      C1252   1.409       .  A
C1251      C1258   1.447       .  S
C1252      C1253   1.409       .  A
C1253      C1254   1.415       .  A
C1253      H1256   1.079       .  S
C1254      C1257   1.440       .  S
C1258      N1260   1.157       .  T
C1261      C1262   1.404       .  A
C1261      C1266   1.403       .  A
C1262      C1263   1.404       .  A
C1262      H1267   1.085       .  S
C1263      C1264   1.414       .  A
C1263      C1270   1.441       .  S
C1264      C1265   1.415       .  A
C1265      C1266   1.401       .  A
C1265      H1268   1.084       .  S
C1269      N1271   1.157       .  T
C1270      N1272   1.157       .  T
C1273      C1274   1.398       .  A
C1273      C1278   1.409       .  A
C1274      C1275   1.402       .  A
C1274      H1279   1.085       .  S
C1275      C1276   1.420       .  A
C1275      C1282   1.445       .  S
C1276      C1277   1.405       .  A
C1277      C1278   1.399       .  A
C1277      H1280   1.084       .  S
C1278      C1281   1.445       .  S
C1281      N1283   1.157       .  T
C1282      N1284   1.157       .  T
C1285      C1286   1.398       .  A
C1285      C1290   1.423   1_556  A
C1286      H1291   1.085       .  S
C1287      C1288   1.421       .  A
C1287      C1294   1.444       .  S
C1289      C1290   1.401       .  A
C1290      C1293   1.443       .  S
C1293      N1295   1.157       .  T
C1294      N1296   1.157       .  T
C1297      C1298   1.408       .  A
C1297      C1302   1.408       .  A
C1298      C1299   1.412       .  A
C1298      H1303   1.084       .  S
C1299      C1300   1.418       .  A
C1299      C1306   1.443       .  S
C1300      C1301   1.413       .  A
C1301      C1302   1.400       .  A
C1301      H1304   1.084       .  S
C1302      C1305   1.445       .  S
C1305      N1307   1.157       .  T
C1306      N1308   1.157       .  T
C1309      C1310   1.406       .  A
C1309      C1314   1.420       .  A
C1310      C1311   1.405       .  A
C1311      C1312   1.413       .  A
C1312      C1313   1.399       .  A
C1313      C1314   1.405       .  A
C1313      H1316   1.085       .  S
C1314      C1317   1.444       .  S
C1317      N1319   1.157       .  T
C1318      N1320   1.157       .  T
C1321      C1322   1.397       .  A
C1321      C1326   1.423       .  A
C1322      C1323   1.404       .  A
C1322      H1327   1.085       .  S
C1323      C1324   1.421       .  A
C1323      C1330   1.444       .  S
C1324      C1325   1.393       .  A
C1325      C1326   1.398       .  A
C1325      H1328   1.085       .  S
C1326      C1329   1.443       .  S
C1329      N1331   1.158       .  T
C1330      N1332   1.157       .  T
C1333      C1334   1.406       .  A
C1333      C1338   1.419       .  A
C1334      C1335   1.398       .  A
C1334      H1339   1.084       .  S
C1335      C1336   1.409       .  A
C1335      C1342   1.445       .  S
C1336      C1337   1.398       .  A
C1337      C1338   1.402       .  A
C1337      H1340   1.085       .  S
C1338      C1341   1.444       .  S
C1341      N1343   1.157       .  T
C1342      N1344   1.157       .  T
C1345      C1346   1.402       .  A
C1345      C1350   1.431       .  A
C1346      C1347   1.401       .  A
C1346      H1351   1.085       .  S
C1347      C1348   1.416       .  A
C1348      C1349   1.390       .  A
C1349      C1350   1.396       .  A
C1349      H1352   1.086       .  S
C1350      C1353   1.446       .  S
C1353      N1355   1.158       .  T
C1354      N1356   1.157       .  T
C1357      C1358   1.411       .  A
C1357      C1362   1.401       .  A
C1358      C1359   1.404       .  A
C1358      H1363   1.085       .  S
C1359      C1360   1.406       .  A
C1359      C1366   1.443       .  S
C1360      C1361   1.415       .  A
C1361      C1362   1.396       .  A
C1361      H1364   1.084       .  S
C1362      C1365   1.445       .  S
C1365      N1367   1.157       .  T
C1366      N1368   1.157       .  T
C1369      C1370   1.408       .  A
C1369      C1374   1.408       .  A
C1370      C1371   1.412       .  A
C1370      H1375   1.084       .  S
C1371      C1372   1.418       .  A
C1371      C1378   1.443       .  S
C1372      C1373   1.412       .  A
C1373      C1374   1.401       .  A
C1373      H1376   1.084       .  S
C1374      C1377   1.445       .  S
C1377      N1379   1.157       .  T
C1378      N1380   1.157   1_556  T
C1381      C1382   1.403       .  A
C1381      C1386   1.402       .  A
C1382      C1383   1.404       .  A
C1382      H1387   1.085       .  S
C1383      C1384   1.417       .  A
C1383      C1390   1.444       .  S
C1384      C1385   1.414       .  A
C1385      C1386   1.400       .  A
C1385      H1388   1.084       .  S
C1386      C1389   1.444       .  S
C1389      N1391   1.157       .  T
C1390      N1392   1.157       .  T
O1393      C1408   1.272       .  A
O1393     Al1401   1.963       .  S
C1394      O1404   1.277       .  A
C1394      O1395   1.258       .  A
C1394      C1672   1.479       .  S
O1395     Al1397   1.868       .  S
O1396      C1398   1.278       .  A
O1396     Al1397   1.968       .  S
Al1397     O1405   1.970       .  S
Al1397     O1407   1.865       .  S
Al1397     O1406   1.764       .  S
C1398      O1411   1.258       .  A
C1398      C1705   1.476       .  S
O1399      C1409   1.279       .  A
O1399     Al1401   2.001       .  S
O1400      C1413   1.276       .  A
O1400     Al1410   1.992       .  S
Al1401     O1414   1.859       .  S
Al1401     O1411   1.863       .  S
Al1401     O1406   1.755       .  S
O1402      C1409   1.255       .  A
O1402     Al1410   1.864       .  S
O1403      C1412   1.254       .  A
O1403     Al1410   1.869       .  S
O1404     Al1410   1.980       .  S
O1405      C1412   1.275       .  A
O1406     Al1410   1.759       .  S
O1407      C1408   1.254       .  A
C1408      C1729   1.465       .  S
C1409      C1717   1.480       .  S
C1412      C1681   1.484       .  S
C1413      O1414   1.248       .  A
C1413      C1693   1.489       .  S
O1415      C1430   1.272       .  A
O1415     Al1423   1.967       .  S
C1416      O1426   1.277       .  A
C1416      O1417   1.258       .  A
C1416      C1636   1.487       .  S
O1417     Al1419   1.874       .  S
O1418      C1420   1.277       .  A
O1418     Al1419   1.963       .  S
Al1419     O1427   1.974       .  S
Al1419     O1429   1.887       .  S
Al1419     O1428   1.764       .  S
C1420      O1433   1.257       .  A
C1420      C2044   1.470   1_554  S
O1421      C1431   1.279       .  A
O1421     Al1423   2.001       .  S
O1422      C1435   1.276       .  A
O1422     Al1432   1.993       .  S
Al1423     O1436   1.863       .  S
Al1423     O1433   1.861       .  S
Al1423     O1428   1.759       .  S
O1424      C1431   1.258       .  A
O1424     Al1432   1.870       .  S
O1425      C1434   1.256       .  A
O1425     Al1432   1.871       .  S
O1426     Al1432   1.986       .  S
O1427      C1434   1.276       .  A
O1428     Al1432   1.763       .  S
O1429      C1430   1.258       .  A
C1430      C1660   1.479       .  S
C1431      C1645   1.485       .  S
C1434      C1624   1.485       .  S
C1435      O1436   1.251       .  A
C1435      C1708   1.486       .  S
O1437      C1800   1.276       .  A
O1437     Al2141   1.966   1_556  S
C1438      O1448   1.278       .  A
C1438      O1439   1.259       .  A
C1438      C1720   1.502       .  S
O1439     Al1441   1.875       .  S
O1440      C1442   1.275       .  A
O1440     Al1441   1.975       .  S
Al1441     O1449   1.987       .  S
Al1441     O2147   1.866       .  S
Al1441     O1798   1.759       .  S
C1442      O2151   1.259       .  A
C1442      C2284   1.485   1_545  S
O1443      C1453   1.283       .  A
O1443     Al1445   2.017       .  S
O1444      C1457   1.278       .  A
O1444     Al1454   2.018       .  S
Al1445     O2133   1.963   1_544  S
Al1445     O2154   1.864       .  S
Al1445     O2499   1.882   1_554  S
Al1445     O1450   1.755   1_554  S
O1446      C1453   1.256       .  A
O1446     Al1454   1.855       .  S
O1447      C1456   1.261       .  A
O1447     Al1454   1.877       .  S
O1448     Al1802   1.997       .  S
O1449      C1804   1.280       .  A
O1450     Al1789   1.759       .  S
O1450     Al1454   1.766   1_556  S
O1451      C1452   1.256       .  A
O1451     Al2137   1.866       .  S
C1452      O1785   1.276       .  A
C1452      C1609   1.475       .  S
C1453      C1597   1.501       .  S
Al1454     O1796   1.997   1_554  S
O1455      C2138   1.260       .  A
O1455     Al2489   1.889       .  S
C1456      O1797   1.280   1_554  A
C1456      C1657   1.490       .  S
C1457      O2154   1.246       .  A
C1457      C2272   1.505   1_545  S
O1458      C2153   1.247       .  A
O1458     Al2141   1.864       .  S
O1459      C2170   1.277       .  A
O1459     Al1467   1.966       .  S
C1460      O1470   1.279       .  A
C1460      O1461   1.260       .  A
C1460      C1648   1.504       .  S
O1461     Al1463   1.874       .  S
O1462      C1464   1.272       .  A
O1462     Al1463   1.957       .  S
Al1463     O1471   1.984       .  S
Al1463     O1473   1.859       .  S
Al1463     O1472   1.770       .  S
C1464      O1477   1.259       .  A
C1464      C1573   1.484       .  S
O1465      C1475   1.284       .  A
O1465     Al1467   2.009       .  S
O1466      C1479   1.272       .  A
O1466     Al1476   1.985       .  S
Al1467     O1480   1.880       .  S
Al1467     O1477   1.884       .  S
Al1467     O1472   1.761       .  S
O1468      C1475   1.258       .  A
O1468     Al1476   1.863       .  S
O1469      C1478   1.256       .  A
O1469     Al1476   1.870       .  S
O1470     Al1476   2.005       .  S
O1471      C1478   1.276       .  A
O1472     Al1476   1.765       .  S
O1473      C2170   1.256       .  A
C1474      O2155   1.277       .  A
C1474      O2169   1.256       .  A
C1474      C1564   1.471   1_565  S
C1475      C1552   1.489       .  S
C1478      C1732   1.491       .  S
C1479      O1480   1.251       .  A
C1479      C1585   1.499       .  S
O1481      C1496   1.272       .  A
C1482      O1492   1.283       .  A
C1482      O1483   1.257       .  A
C1482      C1549   1.486       .  S
O1483     Al1485   1.862       .  S
O1484      C1486   1.276       .  A
O1484     Al1485   1.972       .  S
Al1485     O1493   1.992       .  S
Al1485     O1494   1.767       .  S
C1486      O1499   1.258       .  A
C1486      C1525   1.473       .  S
O1487      C1497   1.279       .  A
O1487     Al1489   1.996       .  S
O1488      C1501   1.276       .  A
O1488     Al1498   1.998       .  S
Al1489     O1502   1.858       .  S
Al1489     O1499   1.871       .  S
Al1489     O1494   1.756       .  S
O1490      C1497   1.257       .  A
O1490     Al1498   1.866       .  S
O1491      C1500   1.253       .  A
O1491     Al1498   1.873       .  S
O1492     Al1498   2.004       .  S
O1493      C1500   1.275       .  A
O1494     Al1498   1.759       .  S
O1495      C1496   1.256   1_455  A
C1496      C1684   1.465       .  S
C1497      C1633   1.485       .  S
C1500      C1612   1.498       .  S
C1501      O1502   1.246       .  A
C1501      C1888   1.496       .  S
O1503      C1518   1.275       .  A
C1504      O1514   1.277       .  A
C1504      O1505   1.257       .  A
C1504      C1600   1.486       .  S
O1505     Al1507   1.862       .  S
O1506      C1508   1.274       .  A
O1506     Al1507   1.956       .  S
Al1507     O1515   1.990       .  S
Al1507     O1517   1.862       .  S
Al1507     O1516   1.763       .  S
C1508      O1521   1.257       .  A
C1508      C1537   1.475       .  S
O1509      C1519   1.281       .  A
O1509     Al1511   1.995       .  S
O1510      C1523   1.271       .  A
O1510     Al1520   1.973       .  S
Al1511     O1524   1.869       .  S
Al1511     O1521   1.872       .  S
Al1511     O1516   1.759       .  S
O1512      C1519   1.258       .  A
O1512     Al1520   1.861       .  S
O1513      C1522   1.251       .  A
O1513     Al1520   1.860       .  S
O1514     Al1520   2.000       .  S
O1515      C1522   1.277       .  A
O1516     Al1520   1.760       .  S
C1518      C1621   1.468       .  S
C1519      C1669   1.480       .  S
C1522      C1561   1.490       .  S
C1523      O1524   1.250       .  A
C1523      C1528   1.492       .  S
C1525      C1526   1.396       .  A
C1526      C1527   1.402       .  A
C1526      H1531   1.085       .  S
C1527      C1534   1.445       .  S
C1528      C1529   1.403       .  A
C1529      C1530   1.399       .  A
C1529      H1532   1.083       .  S
C1530      C1533   1.444       .  S
C1533      N1535   1.157       .  T
C1534      N1536   1.157       .  T
C1537      C1538   1.391       .  A
C1538      C1539   1.397       .  A
C1538      H1543   1.086       .  S
C1539      C1546   1.446   1_554  S
C1540      C1849   1.496   1_554  S
C1540      C1541   1.403       .  A
C1541      C1542   1.404       .  A
C1541      H1544   1.084       .  S
C1542      C1545   1.444       .  S
C1545      N1547   1.157       .  T
C1546      N1896   1.158       .  T
N1548      C1894   1.158       .  T
C1549      C1550   1.393       .  A
C1549      C1554   1.424       .  A
C1550      C1551   1.402       .  A
C1550      H1555   1.085       .  S
C1551      C1552   1.425       .  A
C1551      C1558   1.443       .  S
C1552      C1553   1.397       .  A
C1553      C1554   1.406       .  A
C1553      H1556   1.085       .  S
C1554      C1557   1.443       .  S
C1557      N1559   1.158       .  T
C1558      N1560   1.157       .  T
C1561      C1562   1.404       .  A
C1561      C1566   1.426       .  A
C1562      C1563   1.402       .  A
C1562      H1567   1.086       .  S
C1563      C1564   1.413       .  A
C1563      C1570   1.443       .  S
C1564      C1565   1.392       .  A
C1565      C1566   1.397       .  A
C1565      H1568   1.086       .  S
C1566      C1569   1.446       .  S
C1569      N1571   1.157       .  T
C1570      N1572   1.157   1_545  T
C1573      C1574   1.391       .  A
C1573      C1578   1.417       .  A
C1574      C1575   1.400       .  A
C1574      H1579   1.086       .  S
C1575      C1576   1.434       .  A
C1575      C1582   1.445       .  S
C1576      C2153   1.507       .  S
C1576      C2273   1.406       .  A
C1577      C2272   1.405   1_545  A
C1577      C2274   1.410       .  A
C1577      H1580   1.084       .  S
C1578      C2273   1.411       .  A
C1578      C2277   1.444       .  S
C1581      C2274   1.443       .  S
C1581      N1583   1.157       .  T
C1582      N1584   1.158       .  T
C1585      C1586   1.402       .  A
C1585      C1590   1.420       .  A
C1586      C2283   1.402       .  A
C1586      H1591   1.079       .  S
C1587      C2282   1.403       .  A
C1587      C2284   1.414       .  A
C1587      C1594   1.444       .  S
C1588      C2138   1.488       .  S
C1588      C2283   1.414       .  A
C1588      C1589   1.403       .  A
C1589      C1590   1.411       .  A
C1589      H1592   1.085       .  S
C1590      C1593   1.443       .  S
C1593      N1595   1.157       .  T
C1594      N1596   1.157       .  T
C1597      C1598   1.411       .  A
C1597      C1602   1.416       .  A
C1598      C1599   1.396       .  A
C1598      H1603   1.081       .  S
C1599      C1600   1.410       .  A
C1599      C1606   1.447       .  S
C1600      C1601   1.409       .  A
C1601      C1602   1.414       .  A
C1601      H1604   1.079       .  S
C1602      C1605   1.440       .  S
C1605      N2303   1.156       .  T
C1606      N1608   1.157       .  T
N1607      C2301   1.156       .  T
C1609      C1610   1.404       .  A
C1609      C1614   1.402       .  A
C1610      C1611   1.404       .  A
C1610      H1615   1.085       .  S
C1611      C1612   1.413       .  A
C1611      C1618   1.440       .  S
C1612      C1613   1.416       .  A
C1613      C1614   1.401       .  A
C1613      H1616   1.084       .  S
C1614      C1965   1.444       .  S
C1617      C1962   1.444   1_554  S
C1617      N1619   1.157       .  T
C1618      N1620   1.156       .  T
C1621      C1622   1.398       .  A
C1621      C1626   1.410       .  A
C1622      C1623   1.401       .  A
C1622      H1627   1.085       .  S
C1623      C1624   1.418       .  A
C1623      C1630   1.444       .  S
C1624      C1625   1.406       .  A
C1625      C1626   1.401       .  A
C1625      H1628   1.084       .  S
C1626      C1629   1.445       .  S
C1629      N1631   1.157       .  T
C1630      N1632   1.157       .  T
C1633      C1634   1.397       .  A
C1633      C1638   1.422       .  A
C1634      C1983   1.406       .  A
C1634      H1639   1.085       .  S
C1635      C1982   1.406       .  A
C1635      C1636   1.422   1_556  A
C1635      C1642   1.444       .  S
C1636      C1985   1.396       .  A
C1637      C1984   1.396       .  A
C1637      C1638   1.402       .  A
C1637      H1988   1.085       .  S
C1638      C1641   1.443       .  S
H1640      C1985   1.085       .  S
C1641      N1643   1.157       .  T
C1642      N1644   1.157       .  T
C1645      C1646   1.408       .  A
C1645      C1650   1.408       .  A
C1646      C1647   1.412       .  A
C1646      H1651   1.085       .  S
C1647      C1648   1.418       .  A
C1647      C1654   1.443       .  S
C1648      C1649   1.412       .  A
C1649      C1650   1.399       .  A
C1649      H1652   1.084       .  S
C1650      C1653   1.445       .  S
C1653      N1655   1.157       .  T
C1654      N1656   1.157       .  T
C1657      C1658   1.405   1_554  A
C1657      C1662   1.418       .  A
C1658      C1659   1.403   1_556  A
C1658      H2011   1.085       .  S
C1659      C1660   1.411       .  A
C1659      C2014   1.443   1_554  S
C1660      C1661   1.401       .  A
C1661      C1662   1.405       .  A
C1661      H1664   1.084       .  S
C1662      C1665   1.444       .  S
H1663      C2006   1.085       .  S
C1665      N1667   1.157       .  T
C1666      C2007   1.443       .  S
C1666      N1668   1.157       .  T
C1669      C1670   1.397       .  A
C1669      C1674   1.422       .  A
C1670      C1671   1.404       .  A
C1670      H1675   1.085       .  S
C1671      C1672   1.421       .  A
C1671      C1678   1.444       .  S
C1672      C1673   1.393       .  A
C1673      C1674   1.398       .  A
C1673      H1676   1.085       .  S
C1674      C1677   1.443       .  S
C1677      N1679   1.157       .  T
C1678      N1680   1.157       .  T
C1681      C1682   1.405       .  A
C1681      C1686   1.420       .  A
C1682      C1683   1.397       .  A
C1682      H1687   1.084       .  S
C1683      C1684   1.408       .  A
C1683      C1690   1.444       .  S
C1684      C1685   1.398       .  A
C1685      C1686   1.401       .  A
C1685      H1688   1.085       .  S
C1686      C1689   1.445       .  S
C1689      N1691   1.157       .  T
C1690      N1692   1.157       .  T
C1693      C1694   1.401       .  A
C1693      C1698   1.430       .  A
C1694      C1695   1.401       .  A
C1694      H1699   1.085       .  S
C1695      C1696   1.416       .  A
C1695      C2050   1.444       .  S
C1696      C1768   1.470       .  S
C1696      C1697   1.390       .  A
C1697      C1698   1.395       .  A
C1697      H1700   1.086       .  S
C1698      C1701   1.446       .  S
C1701      N1703   1.158       .  T
C1702      C2043   1.444   1_554  S
C1702      N1704   1.157       .  T
C1705      C1706   1.412       .  A
C1705      C1710   1.401       .  A
C1706      C1707   1.404       .  A
C1706      H1711   1.085       .  S
C1707      C1708   1.405       .  A
C1707      C1714   1.443       .  S
C1708      C1709   1.415       .  A
C1709      C1710   1.396       .  A
C1709      H1712   1.084       .  S
C1710      C1713   1.445       .  S
C1713      N1715   1.157       .  T
C1714      N1716   1.157       .  T
C1717      C1718   1.407       .  A
C1717      C1722   1.406       .  A
C1718      C1719   1.411       .  A
C1718      H1723   1.084       .  S
C1719      C1720   1.417       .  A
C1719      C1726   1.443       .  S
C1720      C1721   1.413       .  A
C1721      C1722   1.399       .  A
C1721      H1724   1.084       .  S
C1722      C1725   1.445       .  S
C1725      N1727   1.157       .  T
C1726      N1728   1.157       .  T
C1729      C1730   1.402       .  A
C1729      C1734   1.401       .  A
C1730      C1731   1.402       .  A
C1730      H1735   1.085       .  S
C1731      C1732   1.416       .  A
C1731      C1738   1.443       .  S
C1732      C1733   1.414       .  A
C1733      C1734   1.398       .  A
C1733      H1736   1.084       .  S
C1734      C1737   1.445       .  S
C1737      N1739   1.157       .  T
C1738      N1740   1.157       .  T
O1741      C1756   1.272       .  A
O1741     Al1749   1.963       .  S
C1742      O1752   1.277       .  A
C1742      O1743   1.258       .  A
C1742      C2020   1.479       .  S
O1743     Al1745   1.868       .  S
O1744      C1746   1.278       .  A
O1744     Al1745   1.968       .  S
Al1745     O1753   1.970       .  S
Al1745     O1755   1.865       .  S
Al1745     O1754   1.764       .  S
C1746      O1759   1.258       .  A
C1746      C2053   1.476       .  S
O1747      C1757   1.279       .  A
O1747     Al1749   2.001       .  S
O1748      C1761   1.276       .  A
O1748     Al1758   1.992       .  S
Al1749     O1762   1.859       .  S
Al1749     O1759   1.863       .  S
Al1749     O1754   1.755       .  S
O1750      C1757   1.255       .  A
O1750     Al1758   1.864       .  S
O1751      C1760   1.254       .  A
O1751     Al1758   1.869       .  S
O1752     Al1758   1.980       .  S
O1753      C1760   1.275       .  A
O1754     Al1758   1.759       .  S
O1755      C1756   1.254       .  A
C1756      C2077   1.465       .  S
C1757      C2065   1.480       .  S
C1760      C2029   1.484       .  S
C1761      O1762   1.248       .  A
C1761      C2041   1.489       .  S
O1763      C1778   1.272       .  A
O1763     Al1771   1.967       .  S
C1764      O1774   1.277       .  A
C1764      O1765   1.258       .  A
C1764      C1984   1.487       .  S
O1765     Al1767   1.874       .  S
O1766      C1768   1.277       .  A
O1766     Al1767   1.963       .  S
Al1767     O1775   1.974       .  S
Al1767     O1777   1.887       .  S
Al1767     O1776   1.764       .  S
C1768      O1781   1.257       .  A
O1769      C1779   1.279       .  A
O1769     Al1771   2.001       .  S
O1770      C1783   1.276       .  A
O1770     Al1780   1.993       .  S
Al1771     O1784   1.863       .  S
Al1771     O1781   1.861       .  S
Al1771     O1776   1.758       .  S
O1772      C1779   1.258       .  A
O1772     Al1780   1.870       .  S
O1773      C1782   1.256       .  A
O1773     Al1780   1.871       .  S
O1774     Al1780   1.986       .  S
O1775      C1782   1.276       .  A
O1776     Al1780   1.763       .  S
O1777      C1778   1.258       .  A
C1778      C2008   1.479       .  S
C1779      C1993   1.485       .  S
C1782      C1972   1.485       .  S
C1783      O1784   1.251       .  A
C1783      C2056   1.486       .  S
O1785     Al2489   1.966       .  S
C1786      O1796   1.278       .  A
C1786      O1787   1.259       .  A
C1786      C2068   1.502       .  S
O1787     Al1789   1.875       .  S
O1788      C1790   1.275       .  A
O1788     Al1789   1.975       .  S
Al1789     O1797   1.987       .  S
Al1789     O2495   1.866       .  S
C1790      O2499   1.259       .  A
C1790      C2632   1.485   1_545  S
O1791      C1801   1.283       .  A
O1791     Al1793   2.017       .  S
O1792      C1805   1.278       .  A
O1792     Al1802   2.018       .  S
Al1793     O2481   1.963   1_545  S
Al1793     O2502   1.864       .  S
Al1793     O2151   1.882       .  S
Al1793     O1798   1.755       .  S
O1794      C1801   1.256       .  A
O1794     Al1802   1.855       .  S
O1795      C1804   1.261       .  A
O1795     Al1802   1.877       .  S
O1798     Al1802   1.766       .  S
O1799      C1800   1.256       .  A
O1799     Al2485   1.866       .  S
C1800      C1957   1.475       .  S
C1801      C1945   1.501       .  S
O1803      C2486   1.260       .  A
O1803     Al2141   1.889   1_556  S
C1804      C2005   1.490       .  S
C1805      O2502   1.246       .  A
C1805      C2620   1.505   1_545  S
O1806      C2501   1.247       .  A
O1806     Al2489   1.864       .  S
O1807      C2518   1.277       .  A
O1807     Al1815   1.966       .  S
C1808      O1818   1.279       .  A
C1808      O1809   1.260       .  A
C1808      C1996   1.504       .  S
O1809     Al1811   1.874       .  S
O1810      C1812   1.272       .  A
O1810     Al1811   1.957       .  S
Al1811     O1819   1.984       .  S
Al1811     O1821   1.859       .  S
Al1811     O1820   1.770       .  S
C1812      O1825   1.259       .  A
C1812      C1921   1.484       .  S
O1813      C1823   1.284       .  A
O1813     Al1815   2.009       .  S
O1814      C1827   1.273       .  A
O1814     Al1824   1.985       .  S
Al1815     O1828   1.880       .  S
Al1815     O1825   1.884       .  S
Al1815     O1820   1.761       .  S
O1816      C1823   1.258       .  A
O1816     Al1824   1.863       .  S
O1817      C1826   1.256       .  A
O1817     Al1824   1.870       .  S
O1818     Al1824   2.005       .  S
O1819      C1826   1.276       .  A
O1820     Al1824   1.765       .  S
O1821      C2518   1.256       .  A
C1822      O2503   1.277       .  A
C1822      O2517   1.257       .  A
C1822      C1912   1.471   1_565  S
C1823      C1900   1.489       .  S
C1826      C2080   1.491       .  S
C1827      O1828   1.251       .  A
C1827      C1933   1.499       .  S
O1829      C1844   1.272       .  A
C1830      O1840   1.283       .  A
C1830      O1831   1.257       .  A
C1830      C1897   1.486       .  S
O1831     Al1833   1.862       .  S
O1832      C1834   1.276       .  A
O1832     Al1833   1.972       .  S
Al1833     O1841   1.992       .  S
Al1833     O1842   1.767       .  S
C1834      O1847   1.258       .  A
C1834      C1873   1.473       .  S
O1835      C1845   1.279       .  A
O1835     Al1837   1.997       .  S
O1836      C1849   1.276       .  A
O1836     Al1846   1.998       .  S
Al1837     O1850   1.858       .  S
Al1837     O1847   1.871       .  S
Al1837     O1842   1.756       .  S
O1838      C1845   1.257       .  A
O1838     Al1846   1.866       .  S
O1839      C1848   1.253       .  A
O1839     Al1846   1.873       .  S
O1840     Al1846   2.004       .  S
O1841      C1848   1.275       .  A
O1842     Al1846   1.759       .  S
O1843      C1844   1.256   1_455  A
C1844      C2032   1.465       .  S
C1845      C1981   1.485       .  S
C1848      C1960   1.498       .  S
C1849      O1850   1.246       .  A
O1851      C1866   1.275       .  A
C1852      O1862   1.277       .  A
C1852      O1853   1.257       .  A
C1852      C1948   1.486       .  S
O1853     Al1855   1.862       .  S
O1854      C1856   1.274       .  A
O1854     Al1855   1.956       .  S
Al1855     O1863   1.990       .  S
Al1855     O1865   1.862       .  S
Al1855     O1864   1.763       .  S
C1856      O1869   1.257       .  A
C1856      C1885   1.475       .  S
O1857      C1867   1.281       .  A
O1857     Al1859   1.995       .  S
O1858      C1871   1.271       .  A
O1858     Al1868   1.973       .  S
Al1859     O1872   1.868       .  S
Al1859     O1869   1.872       .  S
Al1859     O1864   1.759       .  S
O1860      C1867   1.258       .  A
O1860     Al1868   1.861       .  S
O1861      C1870   1.251       .  A
O1861     Al1868   1.860       .  S
O1862     Al1868   2.000       .  S
O1863      C1870   1.277       .  A
O1864     Al1868   1.760       .  S
C1866      C1969   1.468       .  S
C1867      C2017   1.480       .  S
C1870      C1909   1.490       .  S
C1871      O1872   1.250       .  A
C1871      C1876   1.492       .  S
C1873      C1874   1.396       .  A
C1874      C1875   1.402       .  A
C1874      H1879   1.085       .  S
C1875      C1882   1.445       .  S
C1876      C1877   1.403       .  A
C1877      C1878   1.399       .  A
C1877      H1880   1.083       .  S
C1878      C1881   1.444       .  S
C1881      N1883   1.157       .  T
C1882      N1884   1.157       .  T
C1885      C1886   1.391       .  A
C1886      C1887   1.397       .  A
C1886      H1891   1.086       .  S
C1887      C1894   1.446       .  S
C1888      C1889   1.403       .  A
C1889      C1890   1.404       .  A
C1889      H1892   1.084       .  S
C1890      C1893   1.444       .  S
C1893      N1895   1.157       .  T
C1897      C1898   1.393       .  A
C1897      C1902   1.424       .  A
C1898      C1899   1.402       .  A
C1898      H1903   1.085       .  S
C1899      C1900   1.425       .  A
C1899      C1906   1.443       .  S
C1900      C1901   1.397       .  A
C1901      C1902   1.406       .  A
C1901      H1904   1.085       .  S
C1902      C1905   1.443       .  S
C1905      N1907   1.158       .  T
C1906      N1908   1.157       .  T
C1909      C1910   1.404       .  A
C1909      C1914   1.426       .  A
C1910      C1911   1.402       .  A
C1910      H1915   1.086       .  S
C1911      C1912   1.413       .  A
C1911      C1918   1.443       .  S
C1912      C1913   1.392       .  A
C1913      C1914   1.397       .  A
C1913      H1916   1.086       .  S
C1914      C1917   1.446       .  S
C1917      N1919   1.157       .  T
C1918      N1920   1.157   1_545  T
C1921      C1922   1.391       .  A
C1921      C1926   1.417       .  A
C1922      C1923   1.400       .  A
C1922      H1927   1.086       .  S
C1923      C1924   1.434       .  A
C1923      C1930   1.445       .  S
C1924      C2501   1.507       .  S
C1924      C2621   1.406       .  A
C1925      C2620   1.405   1_545  A
C1925      C2622   1.410       .  A
C1925      H1928   1.084       .  S
C1926      C2621   1.411       .  A
C1926      C2625   1.444       .  S
C1929      C2622   1.443       .  S
C1929      N1931   1.157       .  T
C1930      N1932   1.158       .  T
C1933      C1934   1.402       .  A
C1933      C1938   1.420       .  A
C1934      C2631   1.402       .  A
C1934      H1939   1.079       .  S
C1935      C2630   1.403       .  A
C1935      C2632   1.414       .  A
C1935      C1942   1.444       .  S
C1936      C2486   1.488       .  S
C1936      C2631   1.414       .  A
C1936      C1937   1.403       .  A
C1937      C1938   1.411       .  A
C1937      H1940   1.085       .  S
C1938      C1941   1.443       .  S
C1941      N1943   1.157       .  T
C1942      N1944   1.157       .  T
C1945      C1946   1.411       .  A
C1945      C1950   1.416       .  A
C1946      C1947   1.396       .  A
C1946      H1951   1.081       .  S
C1947      C1948   1.410       .  A
C1947      C1954   1.447       .  S
C1948      C1949   1.409       .  A
C1949      C1950   1.414       .  A
C1949      H1952   1.079       .  S
C1950      C1953   1.440       .  S
C1953      N2651   1.156       .  T
C1954      N1956   1.157       .  T
N1955      C2649   1.156       .  T
C1957      C1958   1.404       .  A
C1957      C1962   1.402       .  A
C1958      C1959   1.404       .  A
C1958      H1963   1.085       .  S
C1959      C1960   1.413       .  A
C1959      C1966   1.440       .  S
C1960      C1961   1.416       .  A
C1961      C1962   1.401       .  A
C1961      H1964   1.084       .  S
C1965      N1967   1.157       .  T
C1966      N1968   1.156       .  T
C1969      C1970   1.398       .  A
C1969      C1974   1.410       .  A
C1970      C1971   1.401       .  A
C1970      H1975   1.085       .  S
C1971      C1972   1.418       .  A
C1971      C1978   1.444       .  S
C1972      C1973   1.406       .  A
C1973      C1974   1.401       .  A
C1973      H1976   1.084       .  S
C1974      C1977   1.445       .  S
C1977      N1979   1.157       .  T
C1978      N1980   1.157       .  T
C1981      C1982   1.397       .  A
C1981      C1986   1.422   1_556  A
C1982      H1987   1.085       .  S
C1983      C1984   1.422       .  A
C1983      C1990   1.444       .  S
C1985      C1986   1.402       .  A
C1986      C1989   1.443       .  S
C1989      N1991   1.157       .  T
C1990      N1992   1.157       .  T
C1993      C1994   1.408       .  A
C1993      C1998   1.408       .  A
C1994      C1995   1.412       .  A
C1994      H1999   1.085       .  S
C1995      C1996   1.418       .  A
C1995      C2002   1.443       .  S
C1996      C1997   1.412       .  A
C1997      C1998   1.399       .  A
C1997      H2000   1.084       .  S
C1998      C2001   1.445       .  S
C2001      N2003   1.157       .  T
C2002      N2004   1.157       .  T
C2005      C2006   1.405       .  A
C2005      C2010   1.418       .  A
C2006      C2007   1.403       .  A
C2007      C2008   1.411       .  A
C2008      C2009   1.401       .  A
C2009      C2010   1.405       .  A
C2009      H2012   1.085       .  S
C2010      C2013   1.444       .  S
C2013      N2015   1.157       .  T
C2014      N2016   1.157       .  T
C2017      C2018   1.397       .  A
C2017      C2022   1.422       .  A
C2018      C2019   1.404       .  A
C2018      H2023   1.085       .  S
C2019      C2020   1.421       .  A
C2019      C2026   1.444       .  S
C2020      C2021   1.393       .  A
C2021      C2022   1.398       .  A
C2021      H2024   1.085       .  S
C2022      C2025   1.443       .  S
C2025      N2027   1.157       .  T
C2026      N2028   1.157       .  T
C2029      C2030   1.405       .  A
C2029      C2034   1.420       .  A
C2030      C2031   1.397       .  A
C2030      H2035   1.084       .  S
C2031      C2032   1.408       .  A
C2031      C2038   1.444       .  S
C2032      C2033   1.398       .  A
C2033      C2034   1.401       .  A
C2033      H2036   1.085       .  S
C2034      C2037   1.445       .  S
C2037      N2039   1.157       .  T
C2038      N2040   1.157       .  T
C2041      C2042   1.401       .  A
C2041      C2046   1.430       .  A
C2042      C2043   1.401       .  A
C2042      H2047   1.085       .  S
C2043      C2044   1.416       .  A
C2044      C2045   1.390       .  A
C2045      C2046   1.395       .  A
C2045      H2048   1.086       .  S
C2046      C2049   1.446       .  S
C2049      N2051   1.158       .  T
C2050      N2052   1.157       .  T
C2053      C2054   1.412       .  A
C2053      C2058   1.401       .  A
C2054      C2055   1.404       .  A
C2054      H2059   1.085       .  S
C2055      C2056   1.405       .  A
C2055      C2062   1.443       .  S
C2056      C2057   1.415       .  A
C2057      C2058   1.396       .  A
C2057      H2060   1.084       .  S
C2058      C2061   1.445       .  S
C2061      N2063   1.157       .  T
C2062      N2064   1.157       .  T
C2065      C2066   1.407       .  A
C2065      C2070   1.406       .  A
C2066      C2067   1.411       .  A
C2066      H2071   1.084       .  S
C2067      C2068   1.417       .  A
C2067      C2074   1.443       .  S
C2068      C2069   1.413       .  A
C2069      C2070   1.399       .  A
C2069      H2072   1.084       .  S
C2070      C2073   1.445       .  S
C2073      N2075   1.157       .  T
C2074      N2076   1.157   1_556  T
C2077      C2078   1.402       .  A
C2077      C2082   1.401       .  A
C2078      C2079   1.402       .  A
C2078      H2083   1.085       .  S
C2079      C2080   1.416       .  A
C2079      C2086   1.443       .  S
C2080      C2081   1.414       .  A
C2081      C2082   1.398       .  A
C2081      H2084   1.084       .  S
C2082      C2085   1.445       .  S
C2085      N2087   1.157       .  T
C2086      N2088   1.157       .  T
O2089      C2104   1.273       .  A
O2089     Al2097   1.967       .  S
C2090      O2100   1.277       .  A
C2090      O2091   1.258       .  A
C2090      C2368   1.478       .  S
O2091     Al2093   1.867       .  S
O2092      C2094   1.276       .  A
O2092     Al2093   1.964       .  S
Al2093     O2101   1.967       .  S
Al2093     O2103   1.871       .  S
Al2093     O2102   1.764       .  S
C2094      O2107   1.259       .  A
C2094      C2401   1.474       .  S
O2095      C2105   1.279       .  A
O2095     Al2097   2.005       .  S
O2096      C2109   1.277       .  A
O2096     Al2106   1.994       .  S
Al2097     O2110   1.859       .  S
Al2097     O2107   1.864       .  S
Al2097     O2102   1.756       .  S
O2098      C2105   1.256       .  A
O2098     Al2106   1.867       .  S
O2099      C2108   1.256       .  A
O2099     Al2106   1.873       .  S
O2100     Al2106   1.979       .  S
O2101      C2108   1.275       .  A
O2102     Al2106   1.762       .  S
O2103      C2104   1.256       .  A
C2104      C2425   1.470       .  S
C2105      C2413   1.485       .  S
C2108      C2377   1.485       .  S
C2109      O2110   1.248       .  A
C2109      C2389   1.491       .  S
O2111      C2126   1.272       .  A
O2111     Al2119   1.970       .  S
C2112      O2122   1.276       .  A
C2112      O2113   1.258       .  A
C2112      C2332   1.484       .  S
O2113     Al2115   1.872       .  S
O2114      C2116   1.277       .  A
O2114     Al2115   1.964       .  S
Al2115     O2123   1.975       .  S
Al2115     O2125   1.885       .  S
Al2115     O2124   1.765       .  S
C2116      O2129   1.257       .  A
C2116      C2740   1.470   1_554  S
O2117      C2127   1.279       .  A
O2117     Al2119   2.002       .  S
O2118      C2131   1.275       .  A
O2118     Al2128   1.990       .  S
Al2119     O2132   1.863       .  S
Al2119     O2129   1.861       .  S
Al2119     O2124   1.758       .  S
O2120      C2127   1.257       .  A
O2120     Al2128   1.871       .  S
O2121      C2130   1.255       .  A
O2121     Al2128   1.869       .  S
O2122     Al2128   1.982       .  S
O2123      C2130   1.276       .  A
O2124     Al2128   1.764       .  S
O2125      C2126   1.258       .  A
C2126      C2356   1.480       .  S
C2127      C2341   1.484       .  S
C2130      C2320   1.485       .  S
C2131      O2132   1.251       .  A
C2131      C2404   1.485       .  S
O2133      C2496   1.274       .  A
C2134      O2144   1.279       .  A
C2134      O2135   1.260       .  A
C2134      C2416   1.504       .  S
O2135     Al2137   1.877       .  S
O2136      C2138   1.277       .  A
O2136     Al2137   1.981       .  S
Al2137     O2145   1.993       .  S
Al2137     O2494   1.761       .  S
O2139      C2149   1.283       .  A
O2139     Al2141   2.019       .  S
O2140      C2153   1.279       .  A
O2140     Al2150   2.022       .  S
Al2141     O2146   1.756   1_554  S
O2142      C2149   1.255       .  A
O2142     Al2150   1.854       .  S
O2143      C2152   1.260       .  A
O2143     Al2150   1.875       .  S
O2144     Al2498   1.998       .  S
O2145      C2500   1.281       .  A
O2146     Al2485   1.761       .  S
O2146     Al2150   1.763   1_556  S
O2147      C2148   1.256   1_545  A
C2148      O2481   1.274       .  A
C2148      C2305   1.474       .  S
C2149      C2293   1.501       .  S
Al2150     O2492   1.998   1_554  S
C2152      O2493   1.281   1_554  A
C2152      C2353   1.494       .  S
O2155     Al2163   1.969       .  S
C2156      O2166   1.280       .  A
C2156      O2157   1.260       .  A
C2156      C2344   1.503       .  S
O2157     Al2159   1.873       .  S
O2158      C2160   1.273       .  A
O2158     Al2159   1.961       .  S
Al2159     O2167   1.988       .  S
Al2159     O2169   1.863       .  S
Al2159     O2168   1.769       .  S
C2160      O2173   1.260       .  A
C2160      C2269   1.484       .  S
O2161      C2171   1.285       .  A
O2161     Al2163   2.016       .  S
O2162      C2175   1.274       .  A
O2162     Al2172   1.992       .  S
Al2163     O2176   1.871       .  S
Al2163     O2173   1.883       .  S
Al2163     O2168   1.760       .  S
O2164      C2171   1.257       .  A
O2164     Al2172   1.863       .  S
O2165      C2174   1.256       .  A
O2165     Al2172   1.871       .  S
O2166     Al2172   2.004       .  S
O2167      C2174   1.276       .  A
O2168     Al2172   1.764       .  S
C2170      C2260   1.470       .  S
C2171      C2248   1.492       .  S
C2174      C2428   1.494       .  S
C2175      O2176   1.249       .  A
C2175      C2281   1.502       .  S
O2177      C2192   1.273       .  A
C2178      O2188   1.282       .  A
C2178      O2179   1.258       .  A
C2178      C2245   1.492       .  S
O2179     Al2181   1.869       .  S
O2180      C2182   1.276       .  A
O2180     Al2181   1.972       .  S
Al2181     O2189   1.988       .  S
Al2181     O2190   1.768       .  S
C2182      O2195   1.258       .  A
C2182      C2221   1.474       .  S
O2183      C2193   1.279       .  A
O2183     Al2185   1.995       .  S
O2184      C2197   1.276       .  A
O2184     Al2194   2.000       .  S
Al2185     O2198   1.861       .  S
Al2185     O2195   1.873       .  S
Al2185     O2190   1.759       .  S
O2186      C2193   1.258       .  A
O2186     Al2194   1.868       .  S
O2187      C2196   1.254       .  A
O2187     Al2194   1.872       .  S
O2188     Al2194   2.006       .  S
O2189      C2196   1.275       .  A
O2190     Al2194   1.759       .  S
O2191      C2192   1.256   1_455  A
C2192      C2380   1.467       .  S
C2193      C2329   1.486       .  S
C2196      C2308   1.497       .  S
C2197      O2198   1.248       .  A
C2197      C2584   1.501       .  S
O2199      C2214   1.274       .  A
C2200      O2210   1.278       .  A
C2200      O2201   1.258       .  A
C2200      C2296   1.487       .  S
O2201     Al2203   1.866       .  S
O2202      C2204   1.274       .  A
O2202     Al2203   1.965       .  S
Al2203     O2211   1.997       .  S
Al2203     O2213   1.863       .  S
Al2203     O2212   1.764       .  S
C2204      O2217   1.259       .  A
C2204      C2233   1.481       .  S
O2205      C2215   1.282       .  A
O2205     Al2207   1.997       .  S
O2206      C2219   1.271       .  A
O2206     Al2216   1.975       .  S
Al2207     O2220   1.868       .  S
Al2207     O2217   1.879       .  S
Al2207     O2212   1.759       .  S
O2208      C2215   1.259       .  A
O2208     Al2216   1.860       .  S
O2209      C2218   1.250       .  A
O2209     Al2216   1.859       .  S
O2210     Al2216   2.001       .  S
O2211      C2218   1.278       .  A
O2212     Al2216   1.761       .  S
C2214      C2317   1.468       .  S
C2215      C2365   1.480       .  S
C2218      C2257   1.492       .  S
C2219      O2220   1.249       .  A
C2219      C2224   1.492       .  S
C2221      C2222   1.396       .  A
C2222      C2223   1.403       .  A
C2222      H2227   1.085       .  S
C2223      C2230   1.445       .  S
C2224      C2225   1.402       .  A
C2225      C2226   1.400       .  A
C2225      H2228   1.082       .  S
C2226      C2229   1.444       .  S
C2229      N2231   1.157       .  T
C2230      N2232   1.157       .  T
C2233      C2234   1.394       .  A
C2234      C2235   1.402       .  A
C2234      H2239   1.085       .  S
C2235      C2242   1.446   1_554  S
C2236      C2545   1.501   1_554  S
C2236      C2237   1.404       .  A
C2237      C2238   1.406       .  A
C2237      H2240   1.084       .  S
C2238      C2241   1.444       .  S
C2241      N2243   1.157       .  T
C2242      N2592   1.158       .  T
N2244      C2590   1.158       .  T
C2245      C2246   1.394       .  A
C2245      C2250   1.425       .  A
C2246      C2247   1.403       .  A
C2246      H2251   1.085       .  S
C2247      C2248   1.426       .  A
C2247      C2254   1.442       .  S
C2248      C2249   1.398       .  A
C2249      C2250   1.409       .  A
C2249      H2252   1.085       .  S
C2250      C2253   1.443       .  S
C2253      N2255   1.158       .  T
C2254      N2256   1.158       .  T
C2257      C2258   1.404       .  A
C2257      C2262   1.427       .  A
C2258      C2259   1.404       .  A
C2258      H2263   1.086       .  S
C2259      C2260   1.414       .  A
C2259      C2266   1.443       .  S
C2260      C2261   1.391       .  A
C2261      C2262   1.396       .  A
C2261      H2264   1.085       .  S
C2262      C2265   1.446       .  S
C2265      N2267   1.157       .  T
C2266      N2268   1.157       .  T
C2269      C2270   1.391       .  A
C2269      C2274   1.417   1_565  A
C2270      C2271   1.400       .  A
C2270      H2275   1.086       .  S
C2271      C2272   1.433       .  A
C2271      C2278   1.445       .  S
C2273      H2276   1.084       .  S
C2277      N2279   1.157       .  T
C2278      N2280   1.158       .  T
C2281      C2282   1.403       .  A
C2281      C2286   1.425   1_565  A
C2282      H2287   1.080       .  S
C2283      C2290   1.443       .  S
C2284      C2285   1.399   1_565  A
C2285      C2286   1.408       .  A
C2285      H2288   1.085       .  S
C2286      C2289   1.444       .  S
C2289      N2291   1.157       .  T
C2290      N2292   1.157       .  T
C2293      C2294   1.412       .  A
C2293      C2298   1.416       .  A
C2294      C2295   1.396       .  A
C2294      H2299   1.081       .  S
C2295      C2296   1.409       .  A
C2295      C2302   1.447       .  S
C2296      C2297   1.409       .  A
C2297      C2298   1.415       .  A
C2297      H2300   1.079       .  S
C2298      C2301   1.440       .  S
C2302      N2304   1.157       .  T
C2305      C2306   1.404       .  A
C2305      C2310   1.403       .  A
C2306      C2307   1.404       .  A
C2306      H2311   1.085       .  S
C2307      C2308   1.414       .  A
C2307      C2314   1.441       .  S
C2308      C2309   1.415       .  A
C2309      C2310   1.401       .  A
C2309      H2312   1.084       .  S
C2310      C2661   1.444       .  S
C2313      C2658   1.444   1_554  S
C2313      N2315   1.157       .  T
C2314      N2316   1.157       .  T
C2317      C2318   1.398       .  A
C2317      C2322   1.409       .  A
C2318      C2319   1.402       .  A
C2318      H2323   1.085       .  S
C2319      C2320   1.420       .  A
C2319      C2326   1.445       .  S
C2320      C2321   1.405       .  A
C2321      C2322   1.399       .  A
C2321      H2324   1.084       .  S
C2322      C2325   1.445       .  S
C2325      N2327   1.157       .  T
C2326      N2328   1.157       .  T
C2329      C2330   1.398       .  A
C2329      C2334   1.423       .  A
C2330      C2679   1.406       .  A
C2330      H2335   1.085       .  S
C2331      C2678   1.406       .  A
C2331      C2332   1.421   1_556  A
C2331      C2338   1.444       .  S
C2332      C2681   1.394       .  A
C2333      C2680   1.394       .  A
C2333      C2334   1.401       .  A
C2333      H2684   1.085       .  S
C2334      C2337   1.443       .  S
H2336      C2681   1.085       .  S
C2337      N2339   1.157       .  T
C2338      N2340   1.157       .  T
C2341      C2342   1.408       .  A
C2341      C2346   1.408       .  A
C2342      C2343   1.411       .  A
C2342      H2347   1.084       .  S
C2343      C2344   1.418       .  A
C2343      C2350   1.443       .  S
C2344      C2345   1.413       .  A
C2345      C2346   1.400       .  A
C2345      H2348   1.084       .  S
C2346      C2349   1.445       .  S
C2349      N2351   1.157       .  T
C2350      N2352   1.157       .  T
C2353      C2354   1.406   1_554  A
C2353      C2358   1.420       .  A
C2354      C2355   1.405   1_556  A
C2354      H2707   1.085       .  S
C2355      C2356   1.413       .  A
C2355      C2710   1.444   1_554  S
C2356      C2357   1.399       .  A
C2357      C2358   1.405       .  A
C2357      H2360   1.085       .  S
C2358      C2361   1.444       .  S
H2359      C2702   1.085       .  S
C2361      N2363   1.157       .  T
C2362      C2703   1.444       .  S
C2362      N2364   1.157       .  T
C2365      C2366   1.396       .  A
C2365      C2370   1.423       .  A
C2366      C2367   1.404       .  A
C2366      H2371   1.085       .  S
C2367      C2368   1.421       .  A
C2367      C2374   1.444       .  S
C2368      C2369   1.393       .  A
C2369      C2370   1.398       .  A
C2369      H2372   1.085       .  S
C2370      C2373   1.443       .  S
C2373      N2375   1.158       .  T
C2374      N2376   1.157       .  T
C2377      C2378   1.406       .  A
C2377      C2382   1.419       .  A
C2378      C2379   1.398       .  A
C2378      H2383   1.084       .  S
C2379      C2380   1.409       .  A
C2379      C2386   1.445       .  S
C2380      C2381   1.398       .  A
C2381      C2382   1.402       .  A
C2381      H2384   1.085       .  S
C2382      C2385   1.444       .  S
C2385      N2387   1.157       .  T
C2386      N2388   1.157       .  T
C2389      C2390   1.402       .  A
C2389      C2394   1.431       .  A
C2390      C2391   1.401       .  A
C2390      H2395   1.085       .  S
C2391      C2392   1.416       .  A
C2391      C2746   1.444       .  S
C2392      C2464   1.470       .  S
C2392      C2393   1.390       .  A
C2393      C2394   1.396       .  A
C2393      H2396   1.086       .  S
C2394      C2397   1.446       .  S
C2397      N2399   1.158       .  T
C2398      C2739   1.444   1_554  S
C2398      N2400   1.157       .  T
C2401      C2402   1.411       .  A
C2401      C2406   1.401       .  A
C2402      C2403   1.404       .  A
C2402      H2407   1.085       .  S
C2403      C2404   1.406       .  A
C2403      C2410   1.443       .  S
C2404      C2405   1.415       .  A
C2405      C2406   1.396       .  A
C2405      H2408   1.084       .  S
C2406      C2409   1.445       .  S
C2409      N2411   1.157       .  T
C2410      N2412   1.157       .  T
C2413      C2414   1.408       .  A
C2413      C2418   1.408       .  A
C2414      C2415   1.412       .  A
C2414      H2419   1.084       .  S
C2415      C2416   1.418       .  A
C2415      C2422   1.443       .  S
C2416      C2417   1.412       .  A
C2417      C2418   1.401       .  A
C2417      H2420   1.084       .  S
C2418      C2421   1.445       .  S
C2421      N2423   1.157       .  T
C2422      N2424   1.157       .  T
C2425      C2426   1.403       .  A
C2425      C2430   1.402       .  A
C2426      C2427   1.404       .  A
C2426      H2431   1.085       .  S
C2427      C2428   1.417       .  A
C2427      C2434   1.444       .  S
C2428      C2429   1.414       .  A
C2429      C2430   1.400       .  A
C2429      H2432   1.084       .  S
C2430      C2433   1.444       .  S
C2433      N2435   1.157       .  T
C2434      N2436   1.157       .  T
O2437      C2452   1.273       .  A
O2437     Al2445   1.967       .  S
C2438      O2448   1.277       .  A
C2438      O2439   1.258       .  A
C2438      C2716   1.478       .  S
O2439     Al2441   1.867       .  S
O2440      C2442   1.276       .  A
O2440     Al2441   1.964       .  S
Al2441     O2449   1.967       .  S
Al2441     O2451   1.871       .  S
Al2441     O2450   1.764       .  S
C2442      O2455   1.259       .  A
C2442      C2749   1.474       .  S
O2443      C2453   1.279       .  A
O2443     Al2445   2.005       .  S
O2444      C2457   1.277       .  A
O2444     Al2454   1.994       .  S
Al2445     O2458   1.859       .  S
Al2445     O2455   1.864       .  S
Al2445     O2450   1.756       .  S
O2446      C2453   1.256       .  A
O2446     Al2454   1.867       .  S
O2447      C2456   1.256       .  A
O2447     Al2454   1.873       .  S
O2448     Al2454   1.979       .  S
O2449      C2456   1.275       .  A
O2450     Al2454   1.762       .  S
O2451      C2452   1.256       .  A
C2452      C2773   1.470       .  S
C2453      C2761   1.485       .  S
C2456      C2725   1.485       .  S
C2457      O2458   1.248       .  A
C2457      C2737   1.491       .  S
O2459      C2474   1.272       .  A
O2459     Al2467   1.970       .  S
C2460      O2470   1.276       .  A
C2460      O2461   1.258       .  A
C2460      C2680   1.484       .  S
O2461     Al2463   1.872       .  S
O2462      C2464   1.277       .  A
O2462     Al2463   1.964       .  S
Al2463     O2471   1.975       .  S
Al2463     O2473   1.886       .  S
Al2463     O2472   1.765       .  S
C2464      O2477   1.257       .  A
O2465      C2475   1.279       .  A
O2465     Al2467   2.002       .  S
O2466      C2479   1.275       .  A
O2466     Al2476   1.990       .  S
Al2467     O2480   1.863       .  S
Al2467     O2477   1.861       .  S
Al2467     O2472   1.758       .  S
O2468      C2475   1.257       .  A
O2468     Al2476   1.871       .  S
O2469      C2478   1.255       .  A
O2469     Al2476   1.869       .  S
O2470     Al2476   1.982       .  S
O2471      C2478   1.276       .  A
O2472     Al2476   1.764       .  S
O2473      C2474   1.258       .  A
C2474      C2704   1.481       .  S
C2475      C2689   1.484       .  S
C2478      C2668   1.485       .  S
C2479      O2480   1.251       .  A
C2479      C2752   1.485       .  S
C2482      O2492   1.279       .  A
C2482      O2483   1.260       .  A
C2482      C2764   1.504       .  S
O2483     Al2485   1.877       .  S
O2484      C2486   1.277       .  A
O2484     Al2485   1.981       .  S
Al2485     O2493   1.993       .  S
O2487      C2497   1.283       .  A
O2487     Al2489   2.020       .  S
O2488      C2501   1.279       .  A
O2488     Al2498   2.021       .  S
Al2489     O2494   1.756       .  S
O2490      C2497   1.255       .  A
O2490     Al2498   1.854       .  S
O2491      C2500   1.260       .  A
O2491     Al2498   1.875       .  S
O2494     Al2498   1.763       .  S
O2495      C2496   1.256   1_545  A
C2496      C2653   1.474       .  S
C2497      C2641   1.502       .  S
C2500      C2701   1.494       .  S
O2503     Al2511   1.969       .  S
C2504      O2514   1.280       .  A
C2504      O2505   1.260       .  A
C2504      C2692   1.503       .  S
O2505     Al2507   1.873       .  S
O2506      C2508   1.273       .  A
O2506     Al2507   1.961       .  S
Al2507     O2515   1.988       .  S
Al2507     O2517   1.863       .  S
Al2507     O2516   1.769       .  S
C2508      O2521   1.260       .  A
C2508      C2617   1.484       .  S
O2509      C2519   1.285       .  A
O2509     Al2511   2.016       .  S
O2510      C2523   1.274       .  A
O2510     Al2520   1.992       .  S
Al2511     O2524   1.871       .  S
Al2511     O2521   1.883       .  S
Al2511     O2516   1.760       .  S
O2512      C2519   1.257       .  A
O2512     Al2520   1.863       .  S
O2513      C2522   1.256       .  A
O2513     Al2520   1.871       .  S
O2514     Al2520   2.004       .  S
O2515      C2522   1.276       .  A
O2516     Al2520   1.764       .  S
C2518      C2608   1.470       .  S
C2519      C2596   1.492       .  S
C2522      C2776   1.494       .  S
C2523      O2524   1.249       .  A
C2523      C2629   1.502       .  S
O2525      C2540   1.273       .  A
C2526      O2536   1.282       .  A
C2526      O2527   1.258       .  A
C2526      C2593   1.492       .  S
O2527     Al2529   1.869       .  S
O2528      C2530   1.276       .  A
O2528     Al2529   1.972       .  S
Al2529     O2537   1.988       .  S
Al2529     O2538   1.768       .  S
C2530      O2543   1.258       .  A
C2530      C2569   1.474       .  S
O2531      C2541   1.279       .  A
O2531     Al2533   1.995       .  S
O2532      C2545   1.276       .  A
O2532     Al2542   2.000       .  S
Al2533     O2546   1.861       .  S
Al2533     O2543   1.873       .  S
Al2533     O2538   1.759       .  S
O2534      C2541   1.258       .  A
O2534     Al2542   1.868       .  S
O2535      C2544   1.254       .  A
O2535     Al2542   1.872       .  S
O2536     Al2542   2.006       .  S
O2537      C2544   1.275       .  A
O2538     Al2542   1.759       .  S
O2539      C2540   1.256   1_455  A
C2540      C2728   1.467       .  S
C2541      C2677   1.486       .  S
C2544      C2656   1.497       .  S
C2545      O2546   1.248       .  A
O2547      C2562   1.274       .  A
C2548      O2558   1.278       .  A
C2548      O2549   1.258       .  A
C2548      C2644   1.487       .  S
O2549     Al2551   1.867       .  S
O2550      C2552   1.274       .  A
O2550     Al2551   1.965       .  S
Al2551     O2559   1.997       .  S
Al2551     O2561   1.863       .  S
Al2551     O2560   1.764       .  S
C2552      O2565   1.259       .  A
C2552      C2581   1.481       .  S
O2553      C2563   1.282       .  A
O2553     Al2555   1.997       .  S
O2554      C2567   1.271       .  A
O2554     Al2564   1.975       .  S
Al2555     O2568   1.868       .  S
Al2555     O2565   1.879       .  S
Al2555     O2560   1.759       .  S
O2556      C2563   1.259       .  A
O2556     Al2564   1.860       .  S
O2557      C2566   1.250       .  A
O2557     Al2564   1.859       .  S
O2558     Al2564   2.001       .  S
O2559      C2566   1.278       .  A
O2560     Al2564   1.761       .  S
C2562      C2665   1.468       .  S
C2563      C2713   1.480       .  S
C2566      C2605   1.492       .  S
C2567      O2568   1.249       .  A
C2567      C2572   1.492       .  S
C2569      C2570   1.396       .  A
C2570      C2571   1.403       .  A
C2570      H2575   1.085       .  S
C2571      C2578   1.445       .  S
C2572      C2573   1.402       .  A
C2573      C2574   1.400       .  A
C2573      H2576   1.082       .  S
C2574      C2577   1.444       .  S
C2577      N2579   1.157       .  T
C2578      N2580   1.157       .  T
C2581      C2582   1.394       .  A
C2582      C2583   1.402       .  A
C2582      H2587   1.085       .  S
C2583      C2590   1.446       .  S
C2584      C2585   1.404       .  A
C2585      C2586   1.406       .  A
C2585      H2588   1.084       .  S
C2586      C2589   1.444       .  S
C2589      N2591   1.157       .  T
C2593      C2594   1.394       .  A
C2593      C2598   1.425       .  A
C2594      C2595   1.403       .  A
C2594      H2599   1.085       .  S
C2595      C2596   1.426       .  A
C2595      C2602   1.442       .  S
C2596      C2597   1.398       .  A
C2597      C2598   1.409       .  A
C2597      H2600   1.085       .  S
C2598      C2601   1.443       .  S
C2601      N2603   1.158       .  T
C2602      N2604   1.158       .  T
C2605      C2606   1.404       .  A
C2605      C2610   1.427       .  A
C2606      C2607   1.404       .  A
C2606      H2611   1.086       .  S
C2607      C2608   1.414       .  A
C2607      C2614   1.443       .  S
C2608      C2609   1.391       .  A
C2609      C2610   1.396       .  A
C2609      H2612   1.085       .  S
C2610      C2613   1.446       .  S
C2613      N2615   1.157       .  T
C2614      N2616   1.157       .  T
C2617      C2618   1.391       .  A
C2617      C2622   1.417   1_565  A
C2618      C2619   1.400       .  A
C2618      H2623   1.086       .  S
C2619      C2620   1.433       .  A
C2619      C2626   1.445       .  S
C2621      H2624   1.084       .  S
C2625      N2627   1.157       .  T
C2626      N2628   1.158       .  T
C2629      C2630   1.403       .  A
C2629      C2634   1.425   1_565  A
C2630      H2635   1.080       .  S
C2631      C2638   1.443       .  S
C2632      C2633   1.399   1_565  A
C2633      C2634   1.408       .  A
C2633      H2636   1.085       .  S
C2634      C2637   1.444       .  S
C2637      N2639   1.157       .  T
C2638      N2640   1.157       .  T
C2641      C2642   1.412       .  A
C2641      C2646   1.416       .  A
C2642      C2643   1.396       .  A
C2642      H2647   1.081       .  S
C2643      C2644   1.409       .  A
C2643      C2650   1.447       .  S
C2644      C2645   1.409       .  A
C2645      C2646   1.415       .  A
C2645      H2648   1.079       .  S
C2646      C2649   1.440       .  S
C2650      N2652   1.157       .  T
C2653      C2654   1.404       .  A
C2653      C2658   1.403       .  A
C2654      C2655   1.404       .  A
C2654      H2659   1.085       .  S
C2655      C2656   1.414       .  A
C2655      C2662   1.441       .  S
C2656      C2657   1.415       .  A
C2657      C2658   1.401       .  A
C2657      H2660   1.084       .  S
C2661      N2663   1.157       .  T
C2662      N2664   1.157       .  T
C2665      C2666   1.398       .  A
C2665      C2670   1.409       .  A
C2666      C2667   1.402       .  A
C2666      H2671   1.085       .  S
C2667      C2668   1.420       .  A
C2667      C2674   1.445       .  S
C2668      C2669   1.405       .  A
C2669      C2670   1.399       .  A
C2669      H2672   1.084       .  S
C2670      C2673   1.445       .  S
C2673      N2675   1.157       .  T
C2674      N2676   1.157       .  T
C2677      C2678   1.398       .  A
C2677      C2682   1.423   1_556  A
C2678      H2683   1.085       .  S
C2679      C2680   1.421       .  A
C2679      C2686   1.444       .  S
C2681      C2682   1.401       .  A
C2682      C2685   1.443       .  S
C2685      N2687   1.157       .  T
C2686      N2688   1.157       .  T
C2689      C2690   1.408       .  A
C2689      C2694   1.408       .  A
C2690      C2691   1.411       .  A
C2690      H2695   1.084       .  S
C2691      C2692   1.418       .  A
C2691      C2698   1.443       .  S
C2692      C2693   1.413       .  A
C2693      C2694   1.400       .  A
C2693      H2696   1.084       .  S
C2694      C2697   1.445       .  S
C2697      N2699   1.157       .  T
C2698      N2700   1.157       .  T
C2701      C2702   1.406       .  A
C2701      C2706   1.420       .  A
C2702      C2703   1.405       .  A
C2703      C2704   1.413       .  A
C2704      C2705   1.399       .  A
C2705      C2706   1.405       .  A
C2705      H2708   1.085       .  S
C2706      C2709   1.444       .  S
C2709      N2711   1.157       .  T
C2710      N2712   1.157       .  T
C2713      C2714   1.397       .  A
C2713      C2718   1.423       .  A
C2714      C2715   1.404       .  A
C2714      H2719   1.085       .  S
C2715      C2716   1.421       .  A
C2715      C2722   1.444       .  S
C2716      C2717   1.393       .  A
C2717      C2718   1.398       .  A
C2717      H2720   1.085       .  S
C2718      C2721   1.443       .  S
C2721      N2723   1.158       .  T
C2722      N2724   1.157       .  T
C2725      C2726   1.406       .  A
C2725      C2730   1.419       .  A
C2726      C2727   1.398       .  A
C2726      H2731   1.084       .  S
C2727      C2728   1.409       .  A
C2727      C2734   1.445       .  S
C2728      C2729   1.398       .  A
C2729      C2730   1.402       .  A
C2729      H2732   1.085       .  S
C2730      C2733   1.444       .  S
C2733      N2735   1.157       .  T
C2734      N2736   1.157       .  T
C2737      C2738   1.401       .  A
C2737      C2742   1.431       .  A
C2738      C2739   1.401       .  A
C2738      H2743   1.085       .  S
C2739      C2740   1.416       .  A
C2740      C2741   1.390       .  A
C2741      C2742   1.396       .  A
C2741      H2744   1.086       .  S
C2742      C2745   1.446       .  S
C2745      N2747   1.158       .  T
C2746      N2748   1.157       .  T
C2749      C2750   1.411       .  A
C2749      C2754   1.401       .  A
C2750      C2751   1.404       .  A
C2750      H2755   1.085       .  S
C2751      C2752   1.406       .  A
C2751      C2758   1.443       .  S
C2752      C2753   1.415       .  A
C2753      C2754   1.396       .  A
C2753      H2756   1.084       .  S
C2754      C2757   1.445       .  S
C2757      N2759   1.157       .  T
C2758      N2760   1.157       .  T
C2761      C2762   1.408       .  A
C2761      C2766   1.408       .  A
C2762      C2763   1.412       .  A
C2762      H2767   1.084       .  S
C2763      C2764   1.418       .  A
C2763      C2770   1.443       .  S
C2764      C2765   1.412       .  A
C2765      C2766   1.401       .  A
C2765      H2768   1.084       .  S
C2766      C2769   1.445       .  S
C2769      N2771   1.157       .  T
C2770      N2772   1.157   1_556  T
C2773      C2774   1.403       .  A
C2773      C2778   1.402       .  A
C2774      C2775   1.404       .  A
C2774      H2779   1.085       .  S
C2775      C2776   1.417       .  A
C2775      C2782   1.444       .  S
C2776      C2777   1.414       .  A
C2777      C2778   1.400       .  A
C2777      H2780   1.084       .  S
C2778      C2781   1.444       .  S
C2781      N2783   1.157       .  T
C2782      N2784   1.157       .  T
