geometry optimzed in LAMMPS
_audit_creation_date              2020-12-01 
_audit_creation_method            'lammps2cif' 
_symmetry_space_group_name_H-M    'P1' 
_symmetry_Int_Tables_number       1 
_symmetry_cell_setting            triclinic 
loop_ 
_symmetry_equiv_pos_as_xyz 
  x,y,z 
_cell_length_a                    59.75624505 
_cell_length_b                    59.73435717149373 
_cell_length_c                    59.96605868907053 
_cell_angle_alpha                 89.68386508118888 
_cell_angle_beta                  89.9676213313451 
_cell_angle_gamma                 89.1170160368604 
loop_ 
_atom_site_label 
_atom_site_type_symbol 
_atom_site_fract_x 
_atom_site_fract_y 
_atom_site_fract_z 
_atom_site_charge 
C1          C  0.72097903  0.01430513  0.01884935     0.87200
C2          C  0.71596080  0.98955459  0.02361099    -0.53100
C3          C  0.72832712  0.97480287  0.01111257     0.10100
C4          C  0.74459567  0.98643485  0.99490415     0.21100
C5          C  0.74640042  0.01634944  0.02233007    -0.53800
C6          C  0.75878225  0.00155743  0.00977687     0.10200
C7          C  0.71758221  0.01713095  0.99364800    -0.53300
C8          C  0.72988909  0.00267682  0.98095616     0.10800
H9          H  0.70383808  0.98419794  0.03596645     0.15300
H10         H  0.75520277  0.97492699  0.98501248     0.01000
H11         H  0.75365513  0.02801099  0.03398098     0.15600
H12         H  0.70644396  0.02973114  0.98637315     0.15400
C13         C  0.73183037  0.71459448  0.73317323     0.87200
C14         C  0.73177897  0.71404032  0.75900143    -0.53100
C15         C  0.74748069  0.72763821  0.76841979     0.10100
C16         C  0.76145431  0.74026866  0.75123169     0.21100
C17         C  0.72884970  0.73949165  0.72708362    -0.53800
C18         C  0.74417964  0.75301135  0.73677012     0.10200
C19         C  0.75608787  0.70861537  0.72660427    -0.53300
C20         C  0.77165858  0.72193288  0.73625546     0.10800
H21         H  0.72037899  0.70386734  0.76863489     0.15300
H22         H  0.77410883  0.75130140  0.75867828     0.01000
H23         H  0.71533046  0.74592043  0.71664750     0.15600
H24         H  0.76053928  0.69480831  0.71567744     0.15400
C25         C  0.01955239  0.01520818  0.71758345     0.87200
C26         C  0.02442651  0.99012774  0.71427900    -0.53100
C27         C  0.01266538  0.97647622  0.72829980     0.10100
C28         C  0.99697485  0.98951203  0.74433928     0.21100
C29         C  0.99409013  0.01771139  0.71519400    -0.53800
C30         C  0.98216337  0.00428254  0.72903895     0.10200
C31         C  0.02419151  0.01945108  0.74237419    -0.53300
C32         C  0.01221466  0.00615161  0.75645848     0.10800
H33         H  0.03614491  0.98375626  0.70190888     0.15300
H34         H  0.98760220  0.97891496  0.75602394     0.01000
H35         H  0.98607930  0.02921226  0.70346205     0.15600
H36         H  0.03562438  0.03208885  0.74824818     0.15400
C37         C  0.23372129  0.21400788  0.71453010     0.87200
C38         C  0.22857628  0.21063627  0.73942372    -0.53100
C39         C  0.24307382  0.22103667  0.75338156     0.10100
C40         C  0.26154196  0.23390131  0.74098366     0.21100
C41         C  0.23428259  0.23962607  0.71131513    -0.53800
C42         C  0.24895411  0.25002098  0.72527268     0.10200
C43         C  0.25820190  0.20611093  0.71173502    -0.53300
C44         C  0.27289429  0.21671138  0.72540111     0.10800
H45         H  0.21463008  0.20085189  0.74547336     0.15300
H46         H  0.27333217  0.24236234  0.75221983     0.01000
H47         H  0.22435816  0.24849813  0.69885638     0.15600
H48         H  0.26346849  0.19359408  0.69967238     0.15400
O49         O  0.49632728  0.28221402  0.75600723    -0.77800
C50         C  0.44704022  0.22999997  0.74678375     0.83200
O51         O  0.52265973  0.22221186  0.80240680    -0.78900
O52         O  0.49699965  0.17472353  0.74223678    -0.80400
O53         O  0.52262194  0.23845813  0.69539323    -0.80200
O54         O  0.52412546  0.28121787  0.73129477    -0.78800
Zn55       Zn  0.49026102  0.25015571  0.76474978     1.55700
O56         O  0.49798903  0.21071310  0.69795467    -0.80200
Cd57       Cd  0.52981903  0.24691503  0.72815061     1.59700
Cd58       Cd  0.52913669  0.21215103  0.77010178     1.59600
O59         O  0.56368927  0.24077618  0.73501806    -0.80200
O60         O  0.50986474  0.22948368  0.74873891    -1.90700
Cd61       Cd  0.49115968  0.20767931  0.73173840     1.59900
O62         O  0.56269901  0.21689672  0.76373338    -0.80200
O63         O  0.45717101  0.21469869  0.73577733    -0.78800
C64         C  0.50842990  0.23615061  0.81035660     0.83700
C65         C  0.50992851  0.29209785  0.74304821     0.83400
O66         O  0.45768828  0.24421760  0.75825160    -0.77800
C67         C  0.50996701  0.22398292  0.68644721     0.84200
O68         O  0.49510628  0.24739102  0.79790931    -0.77900
C69         C  0.57353080  0.22858499  0.74970499     0.84300
C70         C  0.51030208  0.16617549  0.75672295     0.84600
O71         O  0.52343101  0.17812920  0.76819715    -0.80300
C72         C  0.53050704  0.50471993  0.70864405     0.87200
C73         C  0.50507824  0.50443824  0.70437470    -0.53100
C74         C  0.49362013  0.49008501  0.71785742     0.10100
C75         C  0.50887654  0.47719061  0.73432765     0.21100
C76         C  0.53276998  0.50982515  0.73364584    -0.53800
C77         C  0.52130183  0.49549562  0.74713159     0.10200
C78         C  0.53816786  0.48016280  0.70626861    -0.53300
C79         C  0.52669207  0.46562509  0.71952838     0.10800
H80         H  0.49682713  0.51477440  0.69178759     0.15300
H81         H  0.50046468  0.46537247  0.74560388     0.01000
H82         H  0.54238611  0.52365667  0.74007213     0.15600
H83         H  0.55115311  0.47472270  0.69474096     0.15400
C84         C  0.54292831  0.21646054  0.02090207     0.87200
C85         C  0.54587562  0.21399061  0.99560127    -0.53100
C86         C  0.53063933  0.22573010  0.98317622     0.10100
C87         C  0.51362089  0.23893472  0.99740181     0.21100
C88         C  0.54326672  0.24184856  0.02501349    -0.53800
C89         C  0.52789165  0.25374137  0.01267335     0.10200
C90         C  0.51861910  0.20967210  0.02549339    -0.53300
C91         C  0.50320797  0.22135886  0.01303296     0.10800
H92         H  0.55906927  0.20383540  0.98807239     0.15300
H93         H  0.50096264  0.24846611  0.98788351     0.01000
H94         H  0.55462722  0.24967825  0.03664017     0.15600
H95         H  0.51405152  0.19675613  0.03739475     0.15400
O96         O  0.76364826  0.78833107  0.98604003    -0.77800
C97         C  0.81931065  0.74252710  0.99922373     0.83200
O98         O  0.73662815  0.72038105  0.95725569    -0.78900
O99         O  0.77845261  0.68637704  0.01807535    -0.80400
O100        O  0.75002275  0.75392732  0.05860422    -0.80200
O101        O  0.74164846  0.79072054  0.01604076    -0.78800
Zn102      Zn  0.77230682  0.75548174  0.98225996     1.55700
O103        O  0.77581154  0.72655152  0.05673724    -0.80200
Cd104      Cd  0.73918117  0.75738185  0.02571433     1.59700
Cd105      Cd  0.73753089  0.71552083  0.99113428     1.59600
O106        O  0.70557475  0.74856986  0.02489057    -0.80200
O107        O  0.75746002  0.73774047  0.00527379    -1.90700
Cd108      Cd  0.78002808  0.72056640  0.02325659     1.59900
O109        O  0.70530617  0.71833863  0.00317075    -0.80200
O110        O  0.81183819  0.73010972  0.01477952    -0.78800
C111        C  0.74832563  0.73195245  0.94388930     0.83700
C112        C  0.75195084  0.79983009  0.99977986     0.83400
O113        O  0.80626660  0.75271038  0.98555191    -0.77800
C114        C  0.76404968  0.74048316  0.06786071     0.84200
O115        O  0.76309441  0.74551436  0.95084417    -0.77900
C116        C  0.69531595  0.73248674  0.01564053     0.84300
C117        C  0.76535115  0.67445350  0.00656385     0.84600
O118        O  0.74900501  0.68300932  0.99568716    -0.80300
C119        C  0.88322116  0.36511093  0.86595456    -0.01800
C120        C  0.98761027  0.46157313  0.75800863     0.87200
C121        C  0.01290568  0.46043856  0.76259812    -0.53100
C122        C  0.02533852  0.47443488  0.74965156     0.10100
C123        C  0.01109823  0.48854193  0.73326177     0.21100
C124        C  0.98116222  0.48659496  0.76075400    -0.53800
C125        C  0.99366016  0.50070847  0.74792415     0.10200
C126        C  0.98554449  0.45731497  0.73285372    -0.53300
C127        C  0.99771123  0.47140918  0.71974306     0.10800
H128        H  0.02036595  0.44929092  0.77499464     0.15300
H129        H  0.02079293  0.50008805  0.72293500     0.01000
H130        H  0.96820257  0.49293907  0.77176921     0.15600
H131        H  0.97535809  0.44410191  0.72600368     0.15400
C132        C  0.76898557  0.46352957  0.96033800     0.87200
C133        C  0.77455940  0.48833426  0.95653914    -0.53100
C134        C  0.76497434  0.50247082  0.97171861     0.10100
C135        C  0.75050268  0.49042522  0.98915234     0.21100
C136        C  0.77559792  0.45840901  0.98464997    -0.53800
C137        C  0.76610053  0.47261434  0.99977644     0.10200
C138        C  0.74323394  0.46297713  0.96029936    -0.53300
C139        C  0.73356128  0.47717501  0.97550217     0.10800
H140        H  0.78504591  0.49416984  0.94295953     0.15300
H141        H  0.74198939  0.50169429  0.00115844     0.01000
H142        H  0.78681994  0.44473647  0.98944496     0.15600
H143        H  0.73376712  0.45213354  0.94948253     0.15400
C144        C  0.23844244  0.02205401  0.50797396     0.87200
C145        C  0.26410054  0.02412957  0.50685264    -0.53100
C146        C  0.27386819  0.01029812  0.49141918     0.10100
C147        C  0.25720796  0.99617462  0.47857704     0.21100
C148        C  0.23029513  0.02645045  0.48397170    -0.53800
C149        C  0.24029092  0.01296505  0.46853940     0.10200
C150        C  0.23452356  0.99691791  0.51223724    -0.53300
C151        C  0.24439541  0.98347763  0.49655534     0.10800
H152        H  0.27350627  0.03533408  0.51736357     0.15300
H153        H  0.26531327  0.98465678  0.46647106     0.01000
H154        H  0.21787056  0.03919659  0.47959750     0.15600
H155        H  0.22485321  0.99052943  0.52615017     0.15400
C156        C  0.13229590  0.10833372  0.61866738    -0.01800
C157        C  0.03498667  0.72815564  0.01840678     0.87200
C158        C  0.03530337  0.72813501  0.99265868    -0.53100
C159        C  0.01883863  0.74122179  0.98315318     0.10100
C160        C  0.00388262  0.75305688  0.00020196     0.21100
C161        C  0.03619987  0.75304707  0.02482941    -0.53800
C162        C  0.02000684  0.76617213  0.01504461     0.10200
C163        C  0.01106365  0.72116960  0.02466836    -0.53300
C164        C  0.99471081  0.73416099  0.01496384     0.10800
H165        H  0.04752760  0.71862009  0.98310348     0.15300
H166        H  0.99062231  0.76369260  0.99258661     0.01000
H167        H  0.04892954  0.75970162  0.03576381     0.15600
H168        H  0.00741873  0.70706626  0.03551205     0.15400
C169        C  0.22480582  0.51023793  0.01509937     0.87200
C170        C  0.22289420  0.48511109  0.02039471    -0.53100
C171        C  0.23448702  0.47152260  0.00617378     0.10100
C172        C  0.24718112  0.48442313  0.98801442     0.21100
C173        C  0.25022148  0.51452372  0.01497730    -0.53800
C174        C  0.26181677  0.50095640  0.00053319     0.10200
C175        C  0.21742643  0.51246214  0.99048341    -0.53300
C176        C  0.22936324  0.49904444  0.97619533     0.10800
H177        H  0.21317448  0.47858445  0.03423270     0.15300
H178        H  0.25718602  0.47347283  0.97694550     0.01000
H179        H  0.25807319  0.52741459  0.02482542     0.15600
H180        H  0.20408992  0.52370951  0.98490861     0.15400
C181        C  0.22498470  0.73212973  0.22845754     0.87200
C182        C  0.22034193  0.75724603  0.22486217    -0.53100
C183        C  0.23305993  0.77080080  0.23784634     0.10100
C184        C  0.24913870  0.75778526  0.25355173     0.21100
C185        C  0.25036772  0.72895638  0.22508021    -0.53800
C186        C  0.26312305  0.74239004  0.23819504     0.10200
C187        C  0.22141635  0.72839917  0.25358942    -0.53300
C188        C  0.23419835  0.74162707  0.26683919     0.10800
H189        H  0.20803785  0.76372368  0.21306231     0.15300
H190        H  0.25897539  0.76874477  0.26436755     0.01000
H191        H  0.25758707  0.71671008  0.21373143     0.15600
H192        H  0.21005423  0.71605936  0.26034483     0.15400
C193        C  0.14100056  0.62581623  0.11955413    -0.01800
C194        C  0.52955337  0.71867963  0.52744799     0.87200
C195        C  0.50562642  0.71757033  0.53711950    -0.53100
C196        C  0.49090633  0.73266036  0.52761532     0.10100
C197        C  0.50180963  0.74781727  0.50992047     0.21100
C198        C  0.52632807  0.71614973  0.50203883    -0.53800
C199        C  0.51164365  0.73144712  0.49289900     0.10200
C200        C  0.53656059  0.74308512  0.53058126    -0.53300
C201        C  0.52219452  0.75839946  0.52122617     0.10800
H202        H  0.50060256  0.70530421  0.54950440     0.15300
H203        H  0.49016869  0.76036952  0.50255739     0.01000
H204        H  0.53451413  0.70300756  0.49248728     0.15600
H205        H  0.55186131  0.74779542  0.53899681     0.15400
O206        O  0.30478880  0.76719587  0.49395091    -0.77800
C207        C  0.25779538  0.75355555  0.44041968     0.83200
O208        O  0.23155480  0.79805617  0.51649814    -0.78900
O209        O  0.20362634  0.73143781  0.48427319    -0.80400
O210        O  0.26980601  0.69692830  0.51591035    -0.80200
O211        O  0.30690290  0.73846341  0.51772524    -0.78800
Zn212      Zn  0.27162422  0.77127923  0.48643877     1.55700
O213        O  0.24691591  0.69588367  0.48654480    -0.80200
Cd214      Cd  0.27360420  0.73057259  0.52208841     1.59700
Cd215      Cd  0.23045914  0.76415479  0.52085327     1.59600
O216        O  0.26621036  0.73622559  0.55516420    -0.80200
O217        O  0.25380916  0.74910078  0.50220896    -1.90700
Cd218      Cd  0.23815568  0.72906698  0.48089247     1.59900
O219        O  0.23616309  0.75881716  0.55428719    -0.80200
O220        O  0.24620070  0.73771663  0.44853277    -0.78800
C221        C  0.24535029  0.81071608  0.50667215     0.83700
C222        C  0.31619804  0.75370473  0.50619530     0.83400
O223        O  0.26786047  0.76747089  0.45285212    -0.77800
C224        C  0.25902720  0.68612719  0.50127970     0.84200
O225        O  0.26165282  0.80293268  0.49512814    -0.77900
C226        C  0.25111575  0.74782420  0.56495044     0.84300
C227        C  0.19082838  0.74181636  0.49785259     0.84600
O228        O  0.19848886  0.75442589  0.51301039    -0.80300
O229        O  0.21265651  0.50513495  0.72177801    -0.77800
C230        C  0.26813254  0.54733979  0.74416901     0.83200
O231        O  0.27482588  0.46881531  0.68996238    -0.78900
O232        O  0.31343402  0.49018913  0.75837362    -0.80400
O233        O  0.24037155  0.47535516  0.79321966    -0.80200
O234        O  0.20631519  0.48032400  0.74893094    -0.78800
Zn235      Zn  0.24674213  0.50765989  0.72012719     1.55700
O236        O  0.27137562  0.49553207  0.79442843    -0.80200
Cd237      Cd  0.23751384  0.46949909  0.75893308     1.59700
Cd238      Cd  0.27859337  0.46312906  0.72360889     1.59600
O239        O  0.23912973  0.43525222  0.75308808    -0.80200
O240        O  0.26045635  0.48556928  0.74067800    -1.90700
Cd241      Cd  0.28072239  0.50064979  0.76187362     1.59900
O242        O  0.26775852  0.43086064  0.72952384    -0.80200
O243        O  0.27955350  0.53457835  0.75697146    -0.78800
C244        C  0.26648750  0.48485770  0.67848994     0.83700
C245        C  0.19927180  0.49400747  0.73403625     0.83400
O246        O  0.25488450  0.53961620  0.72943552    -0.77800
C247        C  0.25517920  0.48591387  0.80409890     0.84200
O248        O  0.25645961  0.50155386  0.68758600    -0.77900
C249        C  0.25178421  0.42287794  0.74106523     0.84300
C250        C  0.32322114  0.47676367  0.74504711     0.84600
O251        O  0.31250740  0.46536259  0.73076688    -0.80300
O252        O  0.99971037  0.74779460  0.80088320    -0.77800
C253        C  0.00256377  0.80145761  0.75039627     0.83200
O254        O  0.95484215  0.72281447  0.73864780    -0.78900
O255        O  0.01247263  0.75542076  0.69423717    -0.80400
O256        O  0.06210328  0.73023115  0.75401842    -0.80200
O257        O  0.02743833  0.72291843  0.79601301    -0.78800
Zn258      Zn  0.98950078  0.75549346  0.76920972     1.55700
O259        O  0.05680596  0.75699128  0.72841986    -0.80200
Cd260      Cd  0.03034741  0.72002571  0.76215806     1.59700
Cd261      Cd  0.98781067  0.71834821  0.72919398     1.59600
O262        O  0.02720988  0.68643408  0.75497393    -0.80200
O263        O  0.00706743  0.73881452  0.74710175    -1.90700
Cd264      Cd  0.02234743  0.76030448  0.72669194     1.59900
O265        O  0.99659394  0.68463252  0.73387958    -0.80200
O266        O  0.01454744  0.79304516  0.73489277    -0.78800
C267        C  0.94549473  0.73507926  0.75340519     0.83700
C268        C  0.01482440  0.73456432  0.80863920     0.83400
O269        O  0.99236704  0.78916587  0.76445639    -0.77800
C270        C  0.06964342  0.74482268  0.74051041     0.84200
O271        O  0.95669903  0.74784821  0.76604737    -0.77900
C272        C  0.01281518  0.67519085  0.74433488     0.84300
C273        C  0.99975927  0.74150449  0.68470570     0.84600
O274        O  0.98960797  0.72621543  0.69546909    -0.80300
C275        C  0.28189029  0.75777447  0.77141051     0.87200
C276        C  0.28292649  0.75844949  0.74580541    -0.53100
C277        C  0.26827802  0.74440689  0.73577112     0.10100
C278        C  0.25391424  0.73124768  0.75213604     0.21100
C279        C  0.25724142  0.76289069  0.77717415    -0.53800
C280        C  0.24255415  0.74911519  0.76680472     0.10200
C281        C  0.28562258  0.73287124  0.77745782    -0.53300
C282        C  0.27077378  0.71891453  0.76742170     0.10800
H283        H  0.29474888  0.76857987  0.73662900     0.15300
H284        H  0.24219760  0.72010293  0.74344317     0.01000
H285        H  0.25190421  0.77650760  0.78796094     0.15600
H286        H  0.29910514  0.72683062  0.78814598     0.15400
O287        O  0.51832069  0.73808507  0.21181500    -0.77800
C288        C  0.56088197  0.75521054  0.26754993     0.83200
O289        O  0.48165030  0.70118781  0.27051720    -0.78900
O290        O  0.50876832  0.76345718  0.31404270    -0.80400
O291        O  0.49040789  0.80589112  0.24320375    -0.80200
O292        O  0.49112756  0.76349409  0.20639628    -0.78800
Zn293      Zn  0.52076996  0.73324419  0.24522991     1.55700
O294        O  0.50666314  0.80572514  0.27665813    -0.80200
Cd295      Cd  0.48284316  0.77231343  0.23872150     1.59700
Cd296      Cd  0.47709182  0.73455840  0.27825721     1.59600
O297        O  0.44864564  0.76914117  0.24288921    -0.80200
O298        O  0.49900621  0.75255066  0.26055431    -1.90700
Cd299      Cd  0.51453597  0.77241612  0.28161257     1.59900
O300        O  0.44428162  0.74384246  0.27010396    -0.80200
O301        O  0.54832037  0.76893641  0.27796088    -0.78800
C302        C  0.49697693  0.69049629  0.26009726     0.83700
C303        C  0.50586139  0.74982516  0.19888603     0.83400
O304        O  0.55297417  0.74013057  0.25485051    -0.77800
C305        C  0.49866165  0.81612708  0.25982919     0.84200
O306        O  0.51328844  0.70043540  0.25068037    -0.77900
C307        C  0.43622109  0.75752064  0.25562450     0.84300
C308        C  0.49643231  0.74914090  0.32354540     0.84600
O309        O  0.48282551  0.73709234  0.31262906    -0.80300
C310        C  0.38015919  0.85478947  0.88006090    -0.01800
C311        C  0.47488356  0.95284542  0.76630514     0.87200
C312        C  0.46985109  0.95394025  0.74112469    -0.53100
C313        C  0.48192527  0.96973129  0.73002138     0.10100
C314        C  0.49801844  0.98265119  0.74479053     0.21100
C315        C  0.50037687  0.94901456  0.76760481    -0.53800
C316        C  0.51254536  0.96457980  0.75635846     0.10200
C317        C  0.47107784  0.97723203  0.77456137    -0.53300
C318        C  0.48334488  0.99276922  0.76327805     0.10800
H319        H  0.45763475  0.94348942  0.73297836     0.15300
H320        H  0.50743615  0.99503150  0.73487771     0.01000
H321        H  0.50811127  0.93493839  0.77637404     0.15600
H322        H  0.45987111  0.98219644  0.78790214     0.15400
C323        C  0.49058900  0.76314049  0.98492851     0.87200
C324        C  0.48188081  0.76548623  0.00890353    -0.53100
C325        C  0.49202670  0.75126020  0.02381373     0.10100
C326        C  0.50972895  0.73554283  0.01310576     0.21100
C327        C  0.51602517  0.76590493  0.98688780    -0.53800
C328        C  0.52617060  0.75159431  0.00168532     0.10200
C329        C  0.48747803  0.73838349  0.97911863    -0.53300
C330        C  0.49760207  0.72380413  0.99374483     0.10800
H331        H  0.46942466  0.77795818  0.01379495     0.15300
H332        H  0.51733250  0.72364774  0.02509339     0.01000
H333        H  0.52521677  0.77847618  0.97763751     0.15600
H334        H  0.47828948  0.73289476  0.96456687     0.15400
C335        C  0.73989712  0.52855830  0.50471049     0.87200
C336        C  0.73901298  0.52861361  0.47900835    -0.53100
C337        C  0.75331662  0.51331174  0.46946356     0.10100
C338        C  0.76709396  0.49963113  0.48637276     0.21100
C339        C  0.73541024  0.50410003  0.51133898    -0.53800
C340        C  0.74971638  0.48891619  0.50185428     0.10200
C341        C  0.76479162  0.53233415  0.51025449    -0.53300
C342        C  0.77910502  0.51706519  0.50063117     0.10800
H343        H  0.72815537  0.53978422  0.46946723     0.15300
H344        H  0.77837923  0.48757421  0.47786331     0.01000
H345        H  0.72176649  0.49920608  0.52221674     0.15600
H346        H  0.77054126  0.54608919  0.52041210     0.15400
O347        O  0.76367067  0.49049876  0.28865201    -0.77800
C348        C  0.76428924  0.43814933  0.23547774     0.83200
O349        O  0.81401395  0.51268840  0.22912585    -0.78900
O350        O  0.75544030  0.48727565  0.18047696    -0.80400
O351        O  0.70562556  0.51279482  0.23768089    -0.80200
O352        O  0.73733881  0.51658166  0.28214610    -0.78800
Zn353      Zn  0.77563241  0.48249034  0.25777476     1.55700
O354        O  0.71129235  0.48315458  0.21572857    -0.80200
Cd355      Cd  0.73750622  0.52101074  0.24820745     1.59700
Cd356      Cd  0.78216142  0.51941293  0.21797228     1.59600
O357        O  0.74456327  0.55469385  0.24287663    -0.80200
O358        O  0.76053982  0.50060493  0.23470903    -1.90700
Cd359      Cd  0.74578577  0.48060380  0.21288617     1.59900
O360        O  0.77574590  0.55311382  0.22244861    -0.80200
O361        O  0.75511378  0.44788691  0.21886843    -0.78800
C362        C  0.82184441  0.50011698  0.24457152     0.83700
C363        C  0.74857599  0.50420742  0.29548650     0.83400
O364        O  0.77153767  0.44897716  0.25222657    -0.77800
C365        C  0.69826025  0.49676058  0.22590847     0.84200
O366        O  0.80920618  0.48818290  0.25683567    -0.77900
C367        C  0.76061577  0.56421307  0.23268477     0.84300
C368        C  0.77003645  0.50020985  0.17214057     0.84600
O369        O  0.78151666  0.51326748  0.18412614    -0.80300
C370        C  0.74391000  0.22763586  0.22252187     0.87200
C371        C  0.76778155  0.22461639  0.21321255    -0.53100
C372        C  0.78331429  0.23757092  0.22350679     0.10100
C373        C  0.77334550  0.25240724  0.24207344     0.21100
C374        C  0.74628693  0.22300895  0.24765185    -0.53800
C375        C  0.76175985  0.23604207  0.25779659     0.10200
C376        C  0.73864307  0.25289161  0.22088027    -0.53300
C377        C  0.75412079  0.26596135  0.23110588     0.10800
H378        H  0.77212825  0.21259537  0.20033689     0.15300
H379        H  0.78549331  0.26260750  0.25128949     0.01000
H380        H  0.73686506  0.21033677  0.25648715     0.15600
H381        H  0.72375159  0.25974979  0.21283122     0.15400
O382        O  0.79714323  0.97118238  0.75797495    -0.77800
C383        C  0.74719018  0.98532799  0.80764639     0.83200
O384        O  0.72981284  0.93886609  0.72901959    -0.78900
O385        O  0.69521627  0.00421388  0.76060560    -0.80400
O386        O  0.76225155  0.04261059  0.73406796    -0.80200
O387        O  0.80038107  0.00025728  0.73478015    -0.78800
Zn388      Zn  0.76412230  0.96733247  0.76300301     1.55700
O389        O  0.73567407  0.04203011  0.76023901    -0.80200
Cd390      Cd  0.76745431  0.00854770  0.72725326     1.59700
Cd391      Cd  0.72631380  0.97305346  0.72507102     1.59600
O392        O  0.76320657  0.00239788  0.69329728    -0.80200
O393        O  0.74705403  0.98916382  0.74539760    -1.90700
Cd394      Cd  0.72897653  0.00864335  0.76568696     1.59900
O395        O  0.73404894  0.97947521  0.69210078    -0.80200
O396        O  0.73541964  0.00096842  0.79878242    -0.78800
C397        C  0.74243545  0.92685726  0.74144563     0.83700
C398        C  0.80905735  0.98477972  0.74688037     0.83400
O399        O  0.75842078  0.97145054  0.79591948    -0.77800
C400        C  0.74904229  0.05265077  0.74762635     0.84200
O401        O  0.75623738  0.93550499  0.75499947    -0.77900
C402        C  0.74939467  0.99050099  0.68245293     0.84300
C403        C  0.68387382  0.99293923  0.74679179     0.84600
O404        O  0.69309449  0.98083052  0.73182528    -0.80300
C405        C  0.78513720  0.26493945  0.76073915     0.87200
C406        C  0.78781226  0.26693729  0.73541443    -0.53100
C407        C  0.77460583  0.25305454  0.72356034     0.10100
C408        C  0.75984220  0.23808479  0.73823300     0.21100
C409        C  0.75994150  0.26864428  0.76489933    -0.53800
C410        C  0.74658347  0.25449215  0.75319905     0.10200
C411        C  0.78970495  0.23997582  0.76582591    -0.53300
C412        C  0.77632926  0.22580146  0.75409581     0.10800
H413        H  0.79925489  0.27845080  0.72741318     0.15300
H414        H  0.74947829  0.22681658  0.72824377     0.01000
H415        H  0.75328388  0.28153957  0.77586209     0.15600
H416        H  0.80251321  0.23408530  0.77737295     0.15400
O417        O  0.74221009  0.20097669  0.49687874    -0.77800
C418        C  0.75381796  0.24581006  0.55094572     0.83200
O419        O  0.71317455  0.27437814  0.47311548    -0.78900
O420        O  0.77784279  0.30098313  0.51048217    -0.80400
O421        O  0.81522500  0.23521064  0.47936727    -0.80200
O422        O  0.77304424  0.19802619  0.47609380    -0.78800
Zn423      Zn  0.73807737  0.23392207  0.50410186     1.55700
O424        O  0.81381579  0.25851413  0.50830007    -0.80200
Cd425      Cd  0.78141212  0.23144039  0.47141846     1.59700
Cd426      Cd  0.74746637  0.27541351  0.47112149     1.59600
O427        O  0.77645356  0.23911895  0.43799675    -0.80200
O428        O  0.76154367  0.25141785  0.48994186    -1.90700
Cd429      Cd  0.78039753  0.26646686  0.51253242     1.59900
O430        O  0.75516138  0.27023846  0.43813901    -0.80200
O431        O  0.77036927  0.25708790  0.54394856    -0.78800
C432        C  0.69983848  0.26090954  0.48252303     0.83700
C433        C  0.75664435  0.18916700  0.48633778     0.83400
O434        O  0.74004768  0.23675433  0.53765990    -0.77800
C435        C  0.82483215  0.24649666  0.49454592     0.84200
O436        O  0.70691562  0.24443983  0.49435802    -0.77900
C437        C  0.76583050  0.25484364  0.42785500     0.84300
C438        C  0.76788038  0.31432401  0.49703284     0.84600
O439        O  0.75619422  0.30729609  0.48081891    -0.80300
C440        C  0.88413179  0.87129786  0.37454777    -0.01800
C441        C  0.78257049  0.97368719  0.47589371     0.87200
C442        C  0.78631195  0.99782709  0.46774083    -0.53100
C443        C  0.77403516  0.01365820  0.47896084     0.10100
C444        C  0.75910871  0.00370605  0.49739022     0.21100
C445        C  0.78748432  0.97414969  0.50112324    -0.53800
C446        C  0.77516083  0.99004855  0.51230335     0.10200
C447        C  0.75715422  0.97047736  0.47441468    -0.53300
C448        C  0.74474799  0.98604871  0.48572495     0.10800
H449        H  0.79786740  0.00201695  0.45441841     0.15300
H450        H  0.74949335  0.01617678  0.50717645     0.01000
H451        H  0.79967358  0.96316764  0.50920269     0.15600
H452        H  0.74958808  0.95666582  0.46560825     0.15400
C453        C  0.98026933  0.76563707  0.47656526     0.87200
C454        C  0.00527585  0.77133489  0.47663760    -0.53100
C455        C  0.01760784  0.75927094  0.49163565     0.10100
C456        C  0.00378425  0.74282805  0.50548361     0.21100
C457        C  0.97967355  0.73998247  0.47298097    -0.53800
C458        C  0.99220280  0.72810613  0.48835168     0.10200
C459        C  0.97270273  0.76917467  0.50084262    -0.53300
C460        C  0.98476292  0.75682825  0.51592953     0.10800
H461        H  0.01268415  0.78365458  0.46558902     0.15300
H462        H  0.01393668  0.73337543  0.51793460     0.01000
H463        H  0.97035693  0.73225274  0.45963021     0.15600
H464        H  0.95873270  0.77998281  0.50558950     0.15400
C465        C  0.77059003  0.77447860  0.27995833     0.87200
C466        C  0.74479506  0.77547545  0.27984657    -0.53100
C467        C  0.73542916  0.76172624  0.26436432     0.10100
C468        C  0.75259668  0.74847373  0.25060865     0.21100
C469        C  0.77645866  0.74945960  0.28333911    -0.53800
C470        C  0.76705452  0.73575283  0.26787226     0.10200
C471        C  0.77730189  0.77991795  0.25573552    -0.53300
C472        C  0.76797465  0.76617410  0.24032449     0.10800
H473        H  0.73507034  0.78619479  0.29086124     0.15300
H474        H  0.74413129  0.73776459  0.23834821     0.01000
H475        H  0.78674604  0.74316500  0.29699458     0.15600
H476        H  0.78819446  0.79360460  0.25120115     0.15400
C477        C  0.29234327  0.48055317  0.46658052     0.87200
C478        C  0.26844307  0.47148886  0.46462316    -0.53100
C479        C  0.25328317  0.48181826  0.47838022     0.10100
C480        C  0.26370948  0.49977489  0.49333920     0.21100
C481        C  0.28963898  0.50588573  0.46283624    -0.53800
C482        C  0.27478182  0.51607359  0.47685500     0.10200
C483        C  0.29854685  0.47810493  0.49139410    -0.53300
C484        C  0.28336310  0.48797073  0.50546460     0.10800
H485        H  0.26376964  0.45877149  0.45269154     0.15300
H486        H  0.25173252  0.50772389  0.50498427     0.01000
H487        H  0.29873107  0.51505771  0.45011853     0.15600
H488        H  0.31357362  0.46948328  0.49725765     0.15400
O489        O  0.51819504  0.50171994  0.03085967    -0.77800
C490        C  0.55855458  0.48433527  0.97172093     0.83200
O491        O  0.48083162  0.54037814  0.97225433    -0.78900
O492        O  0.50212194  0.47639475  0.92733366    -0.80400
O493        O  0.48925173  0.43439530  0.99904557    -0.80200
O494        O  0.49235111  0.47589725  0.03682714    -0.78800
Zn495      Zn  0.51951938  0.50629553  0.99713158     1.55700
O496        O  0.50591506  0.43478102  0.96573554    -0.80200
Cd497      Cd  0.48220174  0.46815143  0.00475932     1.59700
Cd498      Cd  0.47442506  0.50694483  0.96626070     1.59600
O499        O  0.44785626  0.47336348  0.00369053    -0.80200
O500        O  0.49723117  0.48782746  0.98223405    -1.90700
Cd501      Cd  0.51172144  0.46822120  0.95947038     1.59900
O502        O  0.44247488  0.49998962  0.97784108    -0.80200
O503        O  0.54568512  0.47207232  0.96036889    -0.78800
C504        C  0.49685881  0.55031122  0.98189880     0.83700
C505        C  0.50670806  0.48964409  0.04408466     0.83400
O506        O  0.55105224  0.49811450  0.98625351    -0.77800
C507        C  0.49805730  0.42426252  0.98245264     0.84200
O508        O  0.51290002  0.53947068  0.99130196    -0.77900
C509        C  0.43501283  0.48651387  0.99259011     0.84300
C510        C  0.48796961  0.49036463  0.91921681     0.84600
O511        O  0.47568933  0.50269605  0.93167154    -0.80300
C512        C  0.49005815  0.47887644  0.25991722     0.87200
C513        C  0.48345274  0.47286561  0.23590620    -0.53100
C514        C  0.49245281  0.48657781  0.22000723     0.10100
C515        C  0.50683097  0.50535750  0.22982604     0.21100
C516        C  0.51589855  0.47916612  0.25964036    -0.53800
C517        C  0.52461847  0.49316360  0.24383238     0.10200
C518        C  0.48295122  0.50357743  0.26262705    -0.53300
C519        C  0.49200781  0.51755963  0.24706804     0.10800
H520        H  0.47309671  0.45867446  0.23184145     0.15300
H521        H  0.51389591  0.51667948  0.21709194     0.01000
H522        H  0.52618267  0.46973230  0.27139353     0.15600
H523        H  0.47258187  0.50958494  0.27628803     0.15400
C524        C  0.39491175  0.37527752  0.36718318    -0.01800
C525        C  0.48758851  0.27131405  0.47790189     0.87200
C526        C  0.48095750  0.24710052  0.47270463    -0.53100
C527        C  0.49276706  0.23131350  0.48451953     0.10100
C528        C  0.51022805  0.24127489  0.50033959     0.21100
C529        C  0.48517940  0.27340080  0.50338235    -0.53800
C530        C  0.49700438  0.25766380  0.51524062     0.10200
C531        C  0.51298802  0.27202642  0.47365384    -0.53300
C532        C  0.52482689  0.25613002  0.48549862     0.10800
H533        H  0.46812820  0.24285062  0.46068715     0.15300
H534        H  0.52049976  0.22868817  0.50943169     0.01000
H535        H  0.47512068  0.28636314  0.51138510     0.15600
H536        H  0.52062008  0.28381070  0.46223310     0.15400
O537        O  0.49183711  0.98319095  0.44852349    -0.77800
C538        C  0.51171319  0.93165967  0.49426656     0.83200
O539        O  0.45802141  0.00555132  0.51799943    -0.78900
O540        O  0.52524599  0.97376309  0.54927050    -0.80400
O541        O  0.55844150  0.01317221  0.48460237    -0.80200
O542        O  0.51726282  0.01002382  0.44628726    -0.78800
Zn543      Zn  0.48820207  0.97578199  0.48124978     1.55700
O544        O  0.56332329  0.98451271  0.50833826    -0.80200
Cd545      Cd  0.52413005  0.01589585  0.47968187     1.59700
Cd546      Cd  0.49140115  0.01050518  0.52202654     1.59600
O547        O  0.51401266  0.04855164  0.48720339    -0.80200
O548        O  0.50851646  0.99366107  0.49905706    -1.90700
Cd549      Cd  0.53092312  0.97406754  0.51498442     1.59900
O550        O  0.49572316  0.04449965  0.51938017    -0.80200
O551        O  0.52716760  0.94115828  0.50522579    -0.78800
C552        C  0.44651179  0.99381507  0.50483467     0.83700
C553        C  0.50378146  0.99652287  0.43709977     0.83400
O554        O  0.49582601  0.94279681  0.48504574    -0.77800
C555        C  0.57109333  0.00016046  0.49610265     0.84200
O556        O  0.45554304  0.98150450  0.48988742    -0.77900
C557        C  0.50367807  0.05677176  0.50398229     0.84300
C558        C  0.51137334  0.98436939  0.56161254     0.84600
O559        O  0.49813822  0.99933386  0.55377803    -0.80300
C560        C  0.52148163  0.02645690  0.22390185     0.87200
C561        C  0.52540756  0.03187360  0.24855686    -0.53100
C562        C  0.51367676  0.01875661  0.26296930     0.10100
C563        C  0.49864999  0.00168953  0.25118927     0.21100
C564        C  0.52659593  0.00123180  0.22174802    -0.53800
C565        C  0.51443728  0.98810772  0.23584489     0.10200
C566        C  0.49597730  0.02860786  0.22073515    -0.53300
C567        C  0.48400001  0.01550323  0.23506285     0.10800
H568        H  0.53665168  0.04482582  0.25411467     0.15300
H569        H  0.48848487  0.99173556  0.26283842     0.01000
H570        H  0.53827616  0.99435494  0.20960438     0.15600
H571        H  0.48835527  0.03883432  0.20771858     0.15400
C572        C  0.03347348  0.52466612  0.21389954     0.87200
C573        C  0.03522045  0.52665684  0.23951248    -0.53100
C574        C  0.02203223  0.51178999  0.25078205     0.10100
C575        C  0.00877077  0.49642331  0.23556039     0.21100
C576        C  0.03916886  0.50001114  0.20875790    -0.53800
C577        C  0.02643376  0.48517695  0.22044949     0.10200
C578        C  0.00830395  0.52705469  0.20890448    -0.53300
C579        C  0.99532144  0.51246669  0.22041297     0.10800
H580        H  0.04515658  0.53923667  0.24771473     0.15300
H581        H  0.99822959  0.48432368  0.24465771     0.01000
H582        H  0.05226745  0.49479297  0.19726644     0.15600
H583        H  0.00124498  0.53966377  0.19770664     0.15400
O584        O  0.01968952  0.54650689  0.49255515    -0.77800
C585        C  0.01706853  0.49439318  0.54635288     0.83200
O586        O  0.06956200  0.48137660  0.47572535    -0.78900
O587        O  0.00641936  0.43809447  0.49747500    -0.80400
O588        O  0.96016592  0.49728450  0.47126838    -0.80200
O589        O  0.99380992  0.54010917  0.46666521    -0.78800
Zn590      Zn  0.03086943  0.51493843  0.50138763     1.55700
O591        O  0.96474410  0.47572215  0.50148233    -0.80200
Cd592      Cd  0.99295038  0.50603267  0.46342792     1.59700
Cd593      Cd  0.03716815  0.47410863  0.46673418     1.59600
O594        O  0.00173702  0.50039661  0.43030046    -0.80200
O595        O  0.01520230  0.49210956  0.48441043    -1.90700
Cd596      Cd  0.99901151  0.47131588  0.50470000     1.59900
O597        O  0.03427000  0.48177277  0.43334542    -0.80200
O598        O  0.00708370  0.47797118  0.53745778    -0.78800
C599        C  0.07741155  0.49766565  0.48672860     0.83700
C600        C  0.00498408  0.55348167  0.47854488     0.83400
O601        O  0.02590530  0.50982856  0.53463821    -0.77800
C602        C  0.95218487  0.48602681  0.48752730     0.84200
O603        O  0.06463913  0.51203266  0.49627799    -0.77900
C604        C  0.01938949  0.49178094  0.42165825     0.84300
C605        C  0.01953864  0.42882702  0.48336896     0.84600
O606        O  0.03209277  0.44017538  0.47056451    -0.80300
C607        C  0.03622120  0.21941038  0.51666379     0.87200
C608        C  0.03588624  0.24487613  0.52003882    -0.53100
C609        C  0.02296847  0.25644516  0.50512307     0.10100
C610        C  0.01121310  0.24134990  0.48819802     0.21100
C611        C  0.01142492  0.21279073  0.51736575    -0.53800
C612        C  0.99820515  0.22447724  0.50258385     0.10200
C613        C  0.04342805  0.21618565  0.49225693    -0.53300
C614        C  0.03016003  0.22743461  0.47723343     0.10800
H615        H  0.04510353  0.25312999  0.53318129     0.15300
H616        H  0.00068430  0.25074253  0.47616414     0.01000
H617        H  0.00487615  0.20035417  0.52881593     0.15600
H618        H  0.05767872  0.20584610  0.48732102     0.15400
C619        C  0.26422719  0.96065439  0.96302357     0.87200
C620        C  0.23846804  0.95939045  0.96333491    -0.53100
C621        C  0.22853793  0.97478752  0.97718527     0.10100
C622        C  0.24518368  0.98983045  0.98911004     0.21100
C623        C  0.26913454  0.98505828  0.95667169    -0.53800
C624        C  0.25927469  0.00040230  0.97043878     0.10200
C625        C  0.27118958  0.95828243  0.98763030    -0.53300
C626        C  0.26108460  0.97346025  0.00136128     0.10800
H627        H  0.22923897  0.94713641  0.95391214     0.15300
H628        H  0.23673791  0.00231561  0.99988041     0.01000
H629        H  0.27943016  0.98974696  0.94251390     0.15600
H630        H  0.28275346  0.94542928  0.99369973     0.15400
O631        O  0.04885821  0.00040317  0.99818857    -0.77800
C632        C  0.00386282  0.06078648  0.99499591     0.83200
O633        O  0.98517440  0.98643934  0.04619394    -0.78900
O634        O  0.94228149  0.02066505  0.98761872    -0.80400
O635        O  0.99805658  0.98968432  0.93730267    -0.80200
O636        O  0.03977507  0.97716160  0.97081074    -0.78800
Zn637      Zn  0.01861509  0.01313010  0.00871554     1.55700
O638        O  0.97591845  0.01950911  0.94248550    -0.80200
Cd639      Cd  0.00569104  0.97901574  0.96914214     1.59700
Cd640      Cd  0.97496069  0.98131128  0.01356303     1.59600
O641        O  0.99513840  0.94678406  0.97372774    -0.80200
O642        O  0.99388450  0.99935518  0.99262082    -1.90700
Cd643      Cd  0.97509436  0.02263544  0.97712440     1.59900
O644        O  0.97849190  0.94704245  0.00705544    -0.80200
O645        O  0.98663179  0.05412256  0.98456735    -0.78800
C646        C  0.00167686  0.99691105  0.05439669     0.83700
C647        C  0.05428808  0.98635602  0.98304327     0.83400
O648        O  0.01761462  0.04705509  0.00425002    -0.77800
C649        C  0.98621196  0.00586720  0.92965921     0.84200
O650        O  0.01555896  0.00725222  0.04204719    -0.77900
C651        C  0.98631133  0.93662923  0.99013584     0.84300
C652        C  0.93167550  0.00753136  0.00051695     0.84600
O653        O  0.94139513  0.99143873  0.01103477    -0.80300
C654        C  0.97444951  0.97770135  0.26833530     0.87200
C655        C  0.99969360  0.97366046  0.27181541    -0.53100
C656        C  0.01294862  0.98552763  0.25755361     0.10100
C657        C  0.99949867  0.00048491  0.24116067     0.21100
C658        C  0.97121663  0.00319316  0.27023136    -0.53800
C659        C  0.98446685  0.01522309  0.25618019     0.10200
C660        C  0.97026739  0.97269644  0.24358760    -0.53300
C661        C  0.98346263  0.98446746  0.22923231     0.10800
H662        H  0.00645613  0.96254898  0.28461792     0.15300
H663        H  0.00958792  0.01046403  0.22959971     0.01000
H664        H  0.95967844  0.01107211  0.28190508     0.15600
H665        H  0.95790334  0.96085585  0.23793582     0.15400
C666        C  0.99464645  0.27636280  0.97032074     0.87200
C667        C  0.99503315  0.27930267  0.99582521    -0.53100
C668        C  0.00790187  0.26374380  0.00691635     0.10100
C669        C  0.01922169  0.24667652  0.99120155     0.21100
C670        C  0.01937811  0.27642878  0.96330103    -0.53800
C671        C  0.03234614  0.26100181  0.97437144     0.10200
C672        C  0.98711274  0.25214249  0.96678659    -0.53300
C673        C  0.99992177  0.23651295  0.97779147     0.10800
H674        H  0.98593682  0.29259835  0.00437181     0.15300
H675        H  0.02984915  0.23385184  0.99929168     0.01000
H676        H  0.02606748  0.28787246  0.95093119     0.15600
H677        H  0.97287402  0.24776936  0.95652647     0.15400
O678        O  0.27865170  0.24971005  0.93677939    -0.77800
C679        C  0.26471920  0.29935358  0.98702348     0.83200
O680        O  0.32053918  0.22334498  0.99990758    -0.78900
O681        O  0.25944258  0.25180701  0.04286655    -0.80400
O682        O  0.21372068  0.22564189  0.97820056    -0.80200
O683        O  0.25135684  0.22473338  0.93649811    -0.78800
Zn684      Zn  0.28545808  0.25597782  0.96914590     1.55700
O685        O  0.21622511  0.24908023  0.00698047    -0.80200
Cd686      Cd  0.24698598  0.21832539  0.97032981     1.59700
Cd687      Cd  0.28747097  0.21749341  0.00716130     1.59600
O688        O  0.25348320  0.18435456  0.97603175    -0.80200
O689        O  0.26756921  0.23716814  0.98868765    -1.90700
Cd690      Cd  0.24974860  0.25608146  0.00979660     1.59900
O691        O  0.28111270  0.18433529  0.00111987    -0.80200
O692        O  0.25299110  0.28937641  0.00165261    -0.78800
C693        C  0.32997957  0.23725635  0.98692059     0.83700
C694        C  0.26481770  0.23762973  0.92630245     0.83400
O695        O  0.27783754  0.28871270  0.97394982    -0.77800
C696        C  0.20471879  0.23773367  0.99334962     0.84200
O697        O  0.31870972  0.25069129  0.97453112    -0.77900
C698        C  0.26749469  0.17404541  0.98864816     0.84300
C699        C  0.27269679  0.23768936  0.05219192     0.84600
O700        O  0.28370827  0.22321610  0.04098580    -0.80300
O701        O  0.23323172  0.06011021  0.21883217    -0.77800
C702        C  0.24762279  0.00526097  0.17229235     0.83200
O703        O  0.19607629  0.99344882  0.24728011    -0.78900
O704        O  0.26722342  0.95609120  0.22436569    -0.80400
O705        O  0.29957091  0.02693056  0.24495742    -0.80200
O706        O  0.25732758  0.06168759  0.24696611    -0.78800
Zn707      Zn  0.22870085  0.02658002  0.21454929     1.55700
O708        O  0.30282993  0.99973918  0.21985648    -0.80200
Cd709      Cd  0.26608732  0.02884349  0.25221752     1.59700
Cd710      Cd  0.22998596  0.98833254  0.25328719     1.59600
O711        O  0.26206517  0.02174585  0.28524803    -0.80200
O712        O  0.24820424  0.00839882  0.23364379    -1.90700
Cd713      Cd  0.26977629  0.98968154  0.21591871     1.59900
O714        O  0.23608578  0.99527285  0.28665939    -0.80200
O715        O  0.26179780  0.99282960  0.18258370    -0.78800
C716        C  0.18579505  0.00664665  0.23382941     0.83700
C717        C  0.24481090  0.07130457  0.23257563     0.83400
O718        O  0.23461165  0.01887495  0.18244861    -0.77800
C719        C  0.31137057  0.01492469  0.23192250     0.84200
O720        O  0.19624095  0.01982818  0.22084575    -0.77900
C721        C  0.24952612  0.00862876  0.29613404     0.84300
C722        C  0.25348359  0.94506039  0.23623878     0.84600
O723        O  0.23804537  0.95469008  0.24759414    -0.80300
O724        O  0.03283795  0.23962327  0.18735670    -0.77800
C725        C  0.08236531  0.24837540  0.24061398     0.83200
O726        O  0.00454627  0.19619003  0.24737647    -0.78900
O727        O  0.03100995  0.25187262  0.29535349    -0.80400
O728        O  0.01221149  0.30390376  0.23281584    -0.80200
O729        O  0.01029296  0.26957164  0.18959378    -0.78800
Zn730      Zn  0.03904907  0.23105434  0.21987145     1.55700
O731        O  0.03415366  0.29844844  0.26246455    -0.80200
Cd732      Cd  0.00365014  0.27219068  0.22304489     1.59700
Cd733      Cd  0.99805058  0.22913471  0.25511070     1.59600
O734        O  0.96954901  0.26864099  0.22619284    -0.80200
O735        O  0.02032418  0.24872514  0.24017166    -1.90700
Cd736      Cd  0.03879829  0.26375654  0.26350703     1.59900
O737        O  0.96546756  0.23693659  0.24547249    -0.80200
O738        O  0.07244517  0.25845252  0.25660923    -0.78800
C739        C  0.01935517  0.18649965  0.23539424     0.83700
C740        C  0.02158587  0.25552948  0.17818729     0.83400
O741        O  0.07165021  0.23756764  0.22588608    -0.77800
C742        C  0.02402288  0.31142490  0.24870045     0.84200
O743        O  0.03372010  0.19757305  0.22427790    -0.77900
C744        C  0.95729184  0.25351384  0.23454993     0.84300
C745        C  0.01497803  0.23987519  0.30252560     0.84600
O746        O  0.00070007  0.23130673  0.28943789    -0.80300
C747        C  0.29451002  0.27954947  0.26121092     0.87200
C748        C  0.29691412  0.28283185  0.23586706    -0.53100
C749        C  0.28231315  0.27075287  0.22354184     0.10100
C750        C  0.26624059  0.25676044  0.23777861     0.21100
C751        C  0.26988255  0.28545447  0.26619991    -0.53800
C752        C  0.25497246  0.27359611  0.25383598     0.10200
C753        C  0.29648576  0.25408347  0.26484223    -0.53300
C754        C  0.28151362  0.24205076  0.25273398     0.10800
H755        H  0.30927949  0.29362961  0.22826967     0.15300
H756        H  0.25438303  0.24725775  0.22763538     0.01000
H757        H  0.26472518  0.29778847  0.27848548     0.15600
H758        H  0.30863824  0.24629757  0.27601736     0.15400
C759        C  0.63990986  0.12073681  0.13436849    -0.01800
C760        C  0.63872641  0.61485707  0.62311235    -0.01800
C761        C  0.19094229  0.26883027  0.24473758     0.19400
C762        C  0.17730332  0.26600858  0.22592811    -0.18700
C763        C  0.15416354  0.26379753  0.22816157    -0.11000
C764        C  0.14412296  0.26418029  0.24937297     0.21600
C765        C  0.15762012  0.26759992  0.26814461    -0.20300
C766        C  0.18081541  0.26968408  0.26593573    -0.11200
C767        C  0.11961689  0.26161744  0.25238144    -0.15300
C768        C  0.10692978  0.24966617  0.23837715    -0.29200
C769        C  0.21562377  0.26919649  0.24150650    -0.03500
C770        C  0.23036884  0.27598720  0.25696062    -0.40000
H771        H  0.18460991  0.26532559  0.20940339     0.12800
H772        H  0.14421267  0.26195526  0.21323807     0.12400
H773        H  0.15024243  0.26811602  0.28464756     0.11800
H774        H  0.19066362  0.27133598  0.28093209     0.12100
H775        H  0.11190324  0.26941888  0.26686514     0.14800
H776        H  0.11463619  0.24089174  0.22447693     0.13600
H777        H  0.22177503  0.26366856  0.22541364     0.11300
H778        H  0.22450453  0.28351137  0.27234856     0.13300
C779        C  0.26240991  0.18045973  0.24615759     0.19400
C780        C  0.24548642  0.17045811  0.23355313    -0.18700
C781        C  0.24363018  0.14716393  0.23266873    -0.11000
C782        C  0.25873317  0.13325829  0.24449888     0.21600
C783        C  0.27554154  0.14327825  0.25724172    -0.20300
C784        C  0.27739116  0.16655398  0.25812828    -0.11200
C785        C  0.25758884  0.10837376  0.24456758    -0.15300
C786        C  0.24402360  0.09606950  0.23163450    -0.29200
C787        C  0.26334445  0.20535260  0.24657464    -0.03500
C788        C  0.28097561  0.21716602  0.25377291    -0.40000
H789        H  0.23359995  0.18074315  0.22428769     0.12800
H790        H  0.23020870  0.14034823  0.22288949     0.12400
H791        H  0.28730722  0.13302950  0.26669606     0.11800
H792        H  0.29034081  0.17338429  0.26850840     0.12100
H793        H  0.26904182  0.09962719  0.25581315     0.14800
H794        H  0.23270454  0.10392285  0.21974729     0.13600
H795        H  0.24866595  0.21418149  0.24033540     0.11300
H796        H  0.29564046  0.20866628  0.26048296     0.13300
C797        C  0.27413019  0.25510854  0.16153081     0.19400
C798        C  0.27419867  0.23468726  0.15008513    -0.18700
C799        C  0.27254448  0.23419769  0.12684171    -0.11000
C800        C  0.27062832  0.25422178  0.11446445     0.21600
C801        C  0.27029617  0.27466431  0.12592491    -0.20300
C802        C  0.27213017  0.27516040  0.14920313    -0.11200
C803        C  0.26785223  0.25429052  0.08979034    -0.15300
C804        C  0.27560168  0.23766542  0.07667074    -0.29200
C805        C  0.27477295  0.25468404  0.18631319    -0.03500
C806        C  0.28220588  0.27168220  0.19878818    -0.40000
H807        H  0.27535412  0.21900108  0.15919738     0.12800
H808        H  0.27210806  0.21807043  0.11874888     0.12400
H809        H  0.26850392  0.29031119  0.11683122     0.11800
H810        H  0.27132160  0.29120309  0.15746591     0.12100
H811        H  0.25976032  0.26882336  0.08213249     0.14800
H812        H  0.28508385  0.22379498  0.08390483     0.13600
H813        H  0.26978770  0.23928605  0.19448930     0.11300
H814        H  0.28932805  0.28628029  0.19079301     0.13300
C815        C  0.02997109  0.24666885  0.11488386     0.19400
C816        C  0.02372987  0.26690475  0.10421554    -0.18700
C817        C  0.02112822  0.26788804  0.08103694    -0.11000
C818        C  0.02477573  0.24867060  0.06797392     0.21600
C819        C  0.03183875  0.22876832  0.07858500    -0.20300
C820        C  0.03442737  0.22778692  0.10173501    -0.11200
C821        C  0.02216131  0.24865477  0.04328798    -0.15300
C822        C  0.01040684  0.26421845  0.03163585    -0.29200
C823        C  0.03196587  0.24456075  0.13956493    -0.03500
C824        C  0.02097632  0.25821550  0.15371192    -0.40000
H825        H  0.02113308  0.28213410  0.11358321     0.12800
H826        H  0.01664474  0.28381995  0.07352253     0.12400
H827        H  0.03512253  0.21378764  0.06893524     0.11800
H828        H  0.03954353  0.21207877  0.10943939     0.12100
H829        H  0.02977591  0.23460441  0.03469434     0.14800
H830        H  0.00183759  0.27769115  0.04035351     0.13600
H831        H  0.04171493  0.23056407  0.14627669     0.11300
H832        H  0.01029405  0.27160068  0.14728007     0.13300
C833        C  0.14155886  0.23735111  0.98076866     0.19400
C834        C  0.12898736  0.24172812  0.96141802    -0.18700
C835        C  0.10593140  0.24615138  0.96276052    -0.11000
C836        C  0.09502377  0.24612703  0.98358946     0.21600
C837        C  0.10756814  0.24111218  0.00280291    -0.20300
C838        C  0.13051156  0.23672842  0.00145532    -0.11200
C839        C  0.07056140  0.25007380  0.98625625    -0.15300
C840        C  0.05681477  0.25860018  0.97046566    -0.29200
C841        C  0.16612176  0.23357798  0.97899741    -0.03500
C842        C  0.18018914  0.23926950  0.99545045    -0.40000
H843        H  0.13708132  0.24199401  0.94525304     0.12800
H844        H  0.09682603  0.24925664  0.94746348     0.12400
H845        H  0.09956118  0.24052610  0.01901222     0.11800
H846        H  0.13946630  0.23260354  0.01664691     0.12100
H847        H  0.06370646  0.24625977  0.00257352     0.14800
H848        H  0.06342549  0.26455743  0.95471433     0.13600
H849        H  0.17289630  0.22758366  0.96326430     0.11300
H850        H  0.17366642  0.24706478  0.01047222     0.13300
C851        C  0.00384559  0.12454800  0.24511440     0.19400
C852        C  0.98350846  0.11405406  0.24982749    -0.18700
C853        C  0.98221417  0.09071808  0.25073684    -0.11000
C854        C  0.00144894  0.07726881  0.24732510     0.21600
C855        C  0.02181142  0.08780717  0.24263822    -0.20300
C856        C  0.02306397  0.11116484  0.24159260    -0.11200
C857        C  0.00108594  0.05233097  0.24790189    -0.15300
C858        C  0.98408303  0.04013572  0.25605250    -0.29200
C859        C  0.00432933  0.14941858  0.24497799    -0.03500
C860        C  0.01996286  0.16172657  0.23453124    -0.40000
H861        H  0.96845173  0.12398304  0.25263679     0.12800
H862        H  0.96604833  0.08348078  0.25384803     0.12400
H863        H  0.03690422  0.07791329  0.23991758     0.11800
H864        H  0.03916048  0.11859102  0.23846506     0.12100
H865        H  0.01606164  0.04376528  0.24201032     0.14800
H866        H  0.96978008  0.04834432  0.26375918     0.13600
H867        H  0.99065993  0.15801237  0.25349248     0.11300
H868        H  0.03321918  0.15368802  0.22499594     0.13300
C869        C  0.07622902  0.99337307  0.24502180     0.19400
C870        C  0.08848165  0.99778540  0.22554121    -0.18700
C871        C  0.11184123  0.99847031  0.22599814    -0.11000
C872        C  0.12353774  0.99496314  0.24609745     0.21600
C873        C  0.11133794  0.99048914  0.26558070    -0.20300
C874        C  0.08793445  0.98988980  0.26515185    -0.11200
C875        C  0.14839544  0.99514887  0.24718350    -0.15300
C876        C  0.16109189  0.00679957  0.23280228    -0.29200
C877        C  0.05136362  0.99338058  0.24356732    -0.03500
C878        C  0.03780258  0.98449405  0.25913404    -0.40000
H879        H  0.07994116  0.00055190  0.20981131     0.12800
H880        H  0.12062756  0.00132539  0.21049288     0.12400
H881        H  0.11995162  0.98771266  0.28126939     0.11800
H882        H  0.07922365  0.98704434  0.28068177     0.12100
H883        H  0.15645752  0.98592717  0.26072413     0.14800
H884        H  0.15324577  0.01720404  0.22004115     0.13600
H885        H  0.04418603  0.00052714  0.22853351     0.11300
H886        H  0.04491074  0.97583810  0.27345206     0.13300
C887        C  0.00038628  0.17248666  0.99012058     0.19400
C888        C  0.01335039  0.15872251  0.00432868    -0.18700
C889        C  0.01164374  0.13539649  0.00369673    -0.11000
C890        C  0.99681702  0.12522128  0.98875554     0.21600
C891        C  0.98357255  0.13900444  0.97483273    -0.20300
C892        C  0.98528997  0.16232474  0.97544850    -0.11200
C893        C  0.99393380  0.10050823  0.98755147    -0.15300
C894        C  0.00802472  0.08510877  0.99662598    -0.29200
C895        C  0.00305947  0.19720511  0.99155052    -0.03500
C896        C  0.99556964  0.21211288  0.97618463    -0.40000
H897        H  0.02493489  0.16605701  0.01599067     0.12800
H898        H  0.02173964  0.12559598  0.01519057     0.12400
H899        H  0.97176595  0.13168080  0.96337620     0.11800
H900        H  0.97450496  0.17214241  0.96460932     0.12100
H901        H  0.97947837  0.09470512  0.97836234     0.14800
H902        H  0.02298162  0.09016352  0.00535634     0.13600
H903        H  0.01199232  0.20321349  0.00600111     0.11300
H904        H  0.98608729  0.20661439  0.96189133     0.13300
C905        C  0.99281462  0.98796094  0.11797269     0.19400
C906        C  0.97408450  0.98247121  0.13093876    -0.18700
C907        C  0.97506228  0.98271935  0.15425354    -0.11000
C908        C  0.99503224  0.98821168  0.16527155     0.21600
C909        C  0.01383950  0.99350505  0.15228349    -0.20300
C910        C  0.01282964  0.99332452  0.12895417    -0.11200
C911        C  0.99694224  0.98946009  0.19006750    -0.15300
C912        C  0.98143625  0.98201574  0.20459313    -0.29200
C913        C  0.99068566  0.98747078  0.09318644    -0.03500
C914        C  0.00496441  0.99734922  0.07888972    -0.40000
H915        H  0.95844993  0.97823849  0.12297301     0.12800
H916        H  0.95997490  0.97895547  0.16335000     0.12400
H917        H  0.02946193  0.99779126  0.16022893     0.11800
H918        H  0.02786025  0.99711785  0.11974452     0.12100
H919        H  0.01219370  0.99656908  0.19646670     0.14800
H920        H  0.96683986  0.97339645  0.19857239     0.13600
H921        H  0.97615996  0.97913880  0.08642329     0.11300
H922        H  0.01914958  0.00653736  0.08507317     0.13300
C923        C  0.25833350  0.06425121  0.98080155     0.19400
C924        C  0.26188113  0.07733201  0.99977700    -0.18700
C925        C  0.26124829  0.10064600  0.99840063    -0.11000
C926        C  0.25701125  0.11148651  0.97791235     0.21600
C927        C  0.25291815  0.09844796  0.95899071    -0.20300
C928        C  0.25365985  0.07502714  0.96034933    -0.11200
C929        C  0.25615669  0.13630131  0.97609103    -0.15300
C930        C  0.26827504  0.14938988  0.98950307    -0.29200
C931        C  0.25814198  0.03955394  0.98354293    -0.03500
C932        C  0.26122364  0.02489889  0.96682406    -0.40000
H933        H  0.26503091  0.06946416  0.01582213     0.12800
H934        H  0.26359697  0.11007860  0.01354662     0.12400
H935        H  0.24922759  0.10641145  0.94311043     0.11800
H936        H  0.25006634  0.06551066  0.94551874     0.12100
H937        H  0.24590877  0.14389795  0.96304435     0.14800
H938        H  0.27968397  0.14180873  0.00154918     0.13600
H939        H  0.25601702  0.03325814  0.00040727     0.11300
H940        H  0.26561039  0.03077713  0.95025486     0.13300
C941        C  0.16404047  0.97064127  0.97673960     0.19400
C942        C  0.14811843  0.97047742  0.95962454    -0.18700
C943        C  0.12569373  0.97571088  0.96408650    -0.11000
C944        C  0.11863628  0.98076065  0.98595632     0.21600
C945        C  0.13451187  0.98042464  0.00315838    -0.20300
C946        C  0.15695815  0.97526033  0.99866961    -0.11200
C947        C  0.09505459  0.98709100  0.99118276    -0.15300
C948        C  0.07784772  0.98016350  0.97876174    -0.29200
C949        C  0.18796736  0.96657233  0.97118860    -0.03500
C950        C  0.20430580  0.97706578  0.98215022    -0.40000
H951        H  0.15317692  0.96701158  0.94261732     0.12800
H952        H  0.11414486  0.97641133  0.95021247     0.12400
H953        H  0.12952381  0.98415326  0.02012301     0.11800
H954        H  0.16871413  0.97489042  0.01239582     0.12100
H955        H  0.09175004  0.99714651  0.00590248     0.14800
H956        H  0.08091168  0.96892461  0.96490022     0.13600
H957        H  0.19197100  0.95615173  0.95692174     0.11300
H958        H  0.19979989  0.98877251  0.99524978     0.13300
C959        C  0.25567020  0.98720177  0.11131047     0.19400
C960        C  0.27376623  0.97870764  0.09891063    -0.18700
C961        C  0.27227689  0.97678875  0.07573842    -0.11000
C962        C  0.25240167  0.98306113  0.06456118     0.21600
C963        C  0.23418065  0.99109837  0.07710864    -0.20300
C964        C  0.23570578  0.99306462  0.10019731    -0.11200
C965        C  0.24976233  0.98210597  0.03997386    -0.15300
C966        C  0.26489956  0.97332759  0.02576040    -0.29200
C967        C  0.25796595  0.98925385  0.13580612    -0.03500
C968        C  0.24574023  0.00387035  0.14789285    -0.40000
H969        H  0.28925210  0.97389041  0.10715169     0.12800
H970        H  0.28684245  0.97067136  0.06687060     0.12400
H971        H  0.21861098  0.99588841  0.06900946     0.11800
H972        H  0.22107582  0.99886666  0.10922385     0.12100
H973        H  0.23406771  0.98863820  0.03338239     0.14800
H974        H  0.28001304  0.96511684  0.03181985     0.13600
H975        H  0.27051287  0.97877073  0.14404866     0.11300
H976        H  0.23390520  0.01522999  0.13982118     0.13300
C977        C  0.02136078  0.23186009  0.41316381     0.19400
C978        C  0.00228667  0.23234550  0.39949620    -0.18700
C979        C  0.00417283  0.23481983  0.37638641    -0.11000
C980        C  0.02531899  0.23683302  0.36628002     0.21600
C981        C  0.04443143  0.23623066  0.37991024    -0.20300
C982        C  0.04254322  0.23374649  0.40308203    -0.11200
C983        C  0.02798822  0.24084518  0.34186530    -0.15300
C984        C  0.01237547  0.23552043  0.32668103    -0.29200
C985        C  0.01808442  0.23100046  0.43778299    -0.03500
C986        C  0.03435555  0.22656327  0.45279369    -0.40000
H987        H  0.98574088  0.23123965  0.40678281     0.12800
H988        H  0.98893609  0.23590106  0.36670518     0.12400
H989        H  0.06090734  0.23799829  0.37261700     0.11800
H990        H  0.05767086  0.23402589  0.41294130     0.12100
H991        H  0.04358493  0.24806078  0.33616052     0.14800
H992        H  0.99732113  0.22701063  0.33184675     0.13600
H993        H  0.00112907  0.23385640  0.44371577     0.11300
H994        H  0.05100421  0.22166595  0.44730242     0.13300
C995        C  0.01162624  0.31870197  0.49074013     0.19400
C996        C  0.01498303  0.33166237  0.47149378    -0.18700
C997        C  0.01392336  0.35503334  0.47246175    -0.11000
C998        C  0.00926879  0.36589355  0.49275323     0.21600
C999        C  0.00495332  0.35289862  0.51177805    -0.20300
C1000       C  0.00620475  0.32953901  0.51085091    -0.11200
C1001       C  0.00833543  0.39066149  0.49456867    -0.15300
C1002       C  0.02034548  0.40422328  0.48135694    -0.29200
C1003       C  0.01351904  0.29396137  0.48922995    -0.03500
C1004       C  0.02037715  0.28111984  0.50646462    -0.40000
H1005       H  0.01874220  0.32367930  0.45572154     0.12800
H1006       H  0.01649342  0.36448363  0.45725783     0.12400
H1007       H  0.00089431  0.36086097  0.52748690     0.11800
H1008       H  0.00268772  0.32003860  0.52583213     0.12100
H1009       H  0.99823458  0.39788023  0.50786518     0.14800
H1010       H  0.03146902  0.39717379  0.46883041     0.13600
H1011       H  0.01064738  0.28642261  0.47308993     0.11300
H1012       H  0.02534057  0.28898053  0.52193619     0.13300
C1013       C  0.01667286  0.51072865  0.36019953     0.19400
C1014       C  0.99937514  0.51526315  0.34499645    -0.18700
C1015       C  0.00410427  0.51864817  0.32242629    -0.11000
C1016       C  0.02633034  0.51780143  0.31464010     0.21600
C1017       C  0.04373277  0.51437413  0.32998898    -0.20300
C1018       C  0.03898352  0.51073530  0.35256308    -0.11200
C1019       C  0.03154495  0.52004837  0.29054193    -0.15300
C1020       C  0.01820257  0.51097928  0.27515326    -0.29200
C1021       C  0.01097660  0.50688043  0.38399664    -0.03500
C1022       C  0.02364969  0.49393045  0.39752057    -0.40000
H1023       H  0.98211681  0.51584269  0.35054883     0.12800
H1024       H  0.99034843  0.52198911  0.31108216     0.12400
H1025       H  0.06098211  0.51401746  0.32442149     0.11800
H1026       H  0.05280612  0.50818855  0.36398918     0.12100
H1027       H  0.04711799  0.52777826  0.28558652     0.14800
H1028       H  0.00379394  0.50154385  0.28064924     0.13600
H1029       H  0.99578076  0.51470793  0.39044997     0.11300
H1030       H  0.03835901  0.48533687  0.39095826     0.13300
C1031       C  0.02231909  0.37489921  0.23551512     0.19400
C1032       C  0.02079964  0.38705313  0.21543060    -0.18700
C1033       C  0.02228590  0.41039649  0.21523461    -0.11000
C1034       C  0.02520725  0.42213763  0.23524502     0.21600
C1035       C  0.02669783  0.41000721  0.25533540    -0.20300
C1036       C  0.02534645  0.38664921  0.25552315    -0.11200
C1037       C  0.02473269  0.44698445  0.23613500    -0.15300
C1038       C  0.02938299  0.46052903  0.21874905    -0.29200
C1039       C  0.01959808  0.35020486  0.23483719    -0.03500
C1040       C  0.02643550  0.33591262  0.25103172    -0.40000
H1041       H  0.01821103  0.37845151  0.19980476     0.12800
H1042       H  0.02037805  0.41916077  0.19950042     0.12400
H1043       H  0.02857341  0.41868702  0.27102907     0.11800
H1044       H  0.02599302  0.37804023  0.27142062     0.12100
H1045       H  0.02055490  0.45444363  0.25211356     0.14800
H1046       H  0.03581914  0.45366268  0.20326420     0.13600
H1047       H  0.01229679  0.34340096  0.21977182     0.11300
H1048       H  0.03496064  0.34199498  0.26570729     0.13300
C1049       C  0.59769417  0.07927662  0.16232039     0.19400
C1050       C  0.57595685  0.07309745  0.15631535    -0.18700
C1051       C  0.56258005  0.06097288  0.17103616    -0.11000
C1052       C  0.57070790  0.05462591  0.19219837     0.21600
C1053       C  0.59265737  0.06033730  0.19802363    -0.20300
C1054       C  0.60602254  0.07261024  0.18330966    -0.11200
C1055       C  0.55716770  0.04125546  0.20814235    -0.15300
C1056       C  0.53462672  0.04079640  0.20783732    -0.29200
C1057       C  0.61113677  0.09212759  0.14591667    -0.03500
C1058       C  0.62790470  0.10595848  0.15144138    -0.40000
H1059       H  0.56924352  0.07772259  0.14012229     0.12800
H1060       H  0.54611032  0.05622761  0.16550590     0.12400
H1061       H  0.59947784  0.05531554  0.21405231     0.11800
H1062       H  0.62292492  0.07644952  0.18828344     0.12100
H1063       H  0.56602447  0.03170769  0.22095053     0.14800
H1064       H  0.52533718  0.05101275  0.19592743     0.13600
H1065       H  0.60564473  0.09160403  0.12871151     0.11300
H1066       H  0.63221530  0.10771378  0.16893651     0.13300
C1067       C  0.37458184  0.01163509  0.21989067     0.19400
C1068       C  0.39020806  0.99391662  0.22032536    -0.18700
C1069       C  0.41311863  0.99818142  0.22125663    -0.11000
C1070       C  0.42083660  0.02033004  0.22145580     0.21600
C1071       C  0.40524021  0.03804906  0.21999254    -0.20300
C1072       C  0.38229968  0.03378460  0.21938855    -0.11200
C1073       C  0.44506396  0.02528174  0.22261655    -0.15300
C1074       C  0.45945587  0.01217968  0.23418787    -0.29200
C1075       C  0.35035957  0.00660204  0.21995914    -0.03500
C1076       C  0.33550886  0.01952413  0.23094345    -0.40000
H1077       H  0.38465126  0.97673795  0.22036191     0.12800
H1078       H  0.42476172  0.98411887  0.22155862     0.12400
H1079       H  0.41081003  0.05522016  0.21969121     0.11800
H1080       H  0.37064934  0.04780360  0.21835239     0.12100
H1081       H  0.45086724  0.04041890  0.21453696     0.14800
H1082       H  0.45304918  0.99815244  0.24371138     0.13600
H1083       H  0.34487436  0.99130018  0.21206727     0.11300
H1084       H  0.34130490  0.03393036  0.24015632     0.13300
C1085       C  0.51133055  0.00671168  0.32678835     0.19400
C1086       C  0.50398532  0.98842683  0.33950882    -0.18700
C1087       C  0.50465760  0.98884332  0.36279089    -0.11000
C1088       C  0.51260989  0.00773405  0.37405031     0.21600
C1089       C  0.52024694  0.02592150  0.36139140    -0.20300
C1090       C  0.51956832  0.02552326  0.33805354    -0.11200
C1091       C  0.51396100  0.00876542  0.39883277    -0.15300
C1092       C  0.50178877  0.99580400  0.41255223    -0.29200
C1093       C  0.51012464  0.00503210  0.30200231    -0.03500
C1094       C  0.51548158  0.02144984  0.28753815    -0.40000
H1095       H  0.49776348  0.97361073  0.33138458     0.12800
H1096       H  0.49934190  0.97410534  0.37175675     0.12400
H1097       H  0.52670117  0.04058401  0.36961113     0.11800
H1098       H  0.52563736  0.03997241  0.32917147     0.12100
H1099       H  0.52513251  0.02095928  0.40603377     0.14800
H1100       H  0.48979166  0.98422789  0.40578932     0.13600
H1101       H  0.50473335  0.98912836  0.29544017     0.11300
H1102       H  0.52188840  0.03718799  0.29344984     0.13300
C1103       C  0.49575328  0.16733468  0.49475544     0.19400
C1104       C  0.49881883  0.15414071  0.51396815    -0.18700
C1105       C  0.50140994  0.13095317  0.51248778    -0.11000
C1106       C  0.50084133  0.12028176  0.49164281     0.21600
C1107       C  0.49765843  0.13341982  0.47238183    -0.20300
C1108       C  0.49509819  0.15671526  0.47386048    -0.11200
C1109       C  0.50447828  0.09570224  0.48940711    -0.15300
C1110       C  0.50042072  0.08117784  0.50609649    -0.29200
C1111       C  0.49541980  0.19205805  0.49738333    -0.03500
C1112       C  0.48971633  0.20692202  0.48135177    -0.40000
H1113       H  0.49976355  0.16187349  0.53023997     0.12800
H1114       H  0.50459924  0.12164463  0.52770051     0.12400
H1115       H  0.49739841  0.12564861  0.45610413     0.11800
H1116       H  0.49334338  0.16623863  0.45857250     0.12100
H1117       H  0.50997719  0.08932312  0.47333804     0.14800
H1118       H  0.49341511  0.08710743  0.52172089     0.13600
H1119       H  0.50033977  0.19828420  0.51358436     0.11300
H1120       H  0.48277771  0.20138578  0.46565916     0.13300
C1121       C  0.45684965  0.30515358  0.43088825     0.19400
C1122       C  0.46157899  0.31172959  0.40885949    -0.18700
C1123       C  0.44650511  0.32543866  0.39684634    -0.11000
C1124       C  0.42621092  0.33258642  0.40661452     0.21600
C1125       C  0.42138120  0.32568903  0.42847293    -0.20300
C1126       C  0.43645334  0.31220934  0.44048745    -0.11200
C1127       C  0.40911721  0.34643959  0.39459681    -0.15300
C1128       C  0.41337571  0.36030374  0.37728523    -0.29200
C1129       C  0.47266601  0.28982749  0.44300118    -0.03500
C1130       C  0.47376025  0.28877757  0.46543401    -0.40000
H1131       H  0.47696121  0.30619649  0.40091301     0.12800
H1132       H  0.45056846  0.32991338  0.37983449     0.12400
H1133       H  0.40575231  0.33067771  0.43630493     0.11800
H1134       H  0.43168717  0.30684144  0.45705144     0.12100
H1135       H  0.39215204  0.34622410  0.40116329     0.14800
H1136       H  0.43026968  0.36140782  0.37075868     0.13600
H1137       H  0.48350334  0.27886600  0.43325060     0.11300
H1138       H  0.46387927  0.30048198  0.47527494     0.13300
C1139       C  0.33004612  0.30599529  0.30864017     0.19400
C1140       C  0.32537047  0.31510563  0.32970859    -0.18700
C1141       C  0.34142599  0.32774667  0.34093196    -0.11000
C1142       C  0.36263416  0.33133032  0.33131734     0.21600
C1143       C  0.36753776  0.32132677  0.31073493    -0.20300
C1144       C  0.35151343  0.30885629  0.29952198    -0.11200
C1145       C  0.38024772  0.34516043  0.34192668    -0.15300
C1146       C  0.37637941  0.36042403  0.35803138    -0.29200
C1147       C  0.31254795  0.29328358  0.29657731    -0.03500
C1148       C  0.31145911  0.29292319  0.27413219    -0.40000
H1149       H  0.30913335  0.31275386  0.33732412     0.12800
H1150       H  0.33713238  0.33446218  0.35709999     0.12400
H1151       H  0.38382425  0.32340400  0.30309777     0.11800
H1152       H  0.35609407  0.30131970  0.28376385     0.12100
H1153       H  0.39716077  0.34362370  0.33534421     0.14800
H1154       H  0.35955683  0.36266292  0.36453071     0.13600
H1155       H  0.29993947  0.28461654  0.30623997     0.11300
H1156       H  0.32325372  0.30274188  0.26455195     0.13300
C1157       C  0.43028719  0.41880208  0.33309310     0.19400
C1158       C  0.45196016  0.42723431  0.33551997    -0.18700
C1159       C  0.46145088  0.44072794  0.31892637    -0.11000
C1160       C  0.44939358  0.44626911  0.29942521     0.21600
C1161       C  0.42745821  0.43840604  0.29731514    -0.20300
C1162       C  0.41801164  0.42479229  0.31385616    -0.11200
C1163       C  0.45875470  0.46081974  0.28140763    -0.15300
C1164       C  0.48086396  0.46348075  0.27788784    -0.29200
C1165       C  0.42090160  0.40451002  0.35128103    -0.03500
C1166       C  0.40425068  0.38978199  0.34827989    -0.40000
H1167       H  0.46166376  0.42328218  0.35031488     0.12800
H1168       H  0.47805999  0.44707271  0.32170418     0.12400
H1169       H  0.41758984  0.44274125  0.28272602     0.11800
H1170       H  0.40097861  0.41938621  0.31163435     0.12100
H1171       H  0.44703824  0.46930903  0.27025063     0.14800
H1172       H  0.49283353  0.45434961  0.28819445     0.13600
H1173       H  0.42849192  0.40555301  0.36769802     0.11300
H1174       H  0.39712793  0.38794928  0.33176007     0.13300
C1175       C  0.50154308  0.48763893  0.15551001     0.19400
C1176       C  0.51891946  0.49550800  0.14186594    -0.18700
C1177       C  0.51791830  0.49362260  0.11863137    -0.11000
C1178       C  0.49932674  0.48386553  0.10832312     0.21600
C1179       C  0.48201380  0.47584919  0.12195152    -0.20300
C1180       C  0.48299672  0.47776353  0.14521570    -0.11200
C1181       C  0.49734456  0.48132730  0.08361855    -0.15300
C1182       C  0.51008471  0.49206496  0.06845912    -0.29200
C1183       C  0.50362824  0.49051238  0.18016701    -0.03500
C1184       C  0.48919054  0.48277618  0.19565527    -0.40000
H1185       H  0.53347013  0.50313721  0.14922917     0.12800
H1186       H  0.53192570  0.49958253  0.10900927     0.12400
H1187       H  0.46750330  0.46818765  0.11453858     0.11800
H1188       H  0.46908891  0.47159702  0.15484373     0.12100
H1189       H  0.48417331  0.47055173  0.07761412     0.14800
H1190       H  0.52279701  0.50362254  0.07376458     0.13600
H1191       H  0.51840639  0.49914018  0.18575439     0.11300
H1192       H  0.47508595  0.47274556  0.19078458     0.13300
C1193       C  0.14137299  0.48742785  0.48057752     0.19400
C1194       C  0.15493392  0.46832476  0.47708707    -0.18700
C1195       C  0.17832849  0.46960454  0.47781819    -0.11000
C1196       C  0.18869716  0.49021042  0.48179481     0.21600
C1197       C  0.17508961  0.50930896  0.48504031    -0.20300
C1198       C  0.15177350  0.50801533  0.48435424    -0.11200
C1199       C  0.21342933  0.49285525  0.48311388    -0.15300
C1200       C  0.22888406  0.47724918  0.47728976    -0.29200
C1201       C  0.11657297  0.48533765  0.47944916    -0.03500
C1202       C  0.10196137  0.50017988  0.48850036    -0.40000
H1203       H  0.14738060  0.45226328  0.47400549     0.12800
H1204       H  0.18802718  0.45438889  0.47550277     0.12400
H1205       H  0.18254703  0.52543996  0.48801509     0.11800
H1206       H  0.14208171  0.52329596  0.48641735     0.12100
H1207       H  0.21910141  0.50916807  0.48833531     0.14800
H1208       H  0.22384718  0.46142582  0.47028861     0.13600
H1209       H  0.11010810  0.47062395  0.47121255     0.11300
H1210       H  0.10794427  0.51444872  0.49773642     0.13300
C1211       C  0.35581453  0.41667921  0.40004596     0.19400
C1212       C  0.34325815  0.43602764  0.39479546    -0.18700
C1213       C  0.33016554  0.44672810  0.41102722    -0.11000
C1214       C  0.32919759  0.43817301  0.43294246     0.21600
C1215       C  0.34165004  0.41875812  0.43817720    -0.20300
C1216       C  0.35490056  0.40815360  0.42198530    -0.11200
C1217       C  0.31430931  0.44833373  0.45019388    -0.15300
C1218       C  0.30887242  0.47025304  0.45029692    -0.29200
C1219       C  0.36788817  0.40467357  0.38184288    -0.03500
C1220       C  0.38516321  0.39033868  0.38544723    -0.40000
H1221       H  0.34329453  0.44269053  0.37795852     0.12800
H1222       H  0.32022333  0.46121463  0.40610946     0.12400
H1223       H  0.34092181  0.41162259  0.45480796     0.11800
H1224       H  0.36365450  0.39282585  0.42654949     0.12100
H1225       H  0.30776954  0.43758305  0.46326644     0.14800
H1226       H  0.31641131  0.48122775  0.43801376     0.13600
H1227       H  0.36187671  0.40709680  0.36488416     0.11300
H1228       H  0.39206479  0.38889786  0.40214736     0.13300
C1229       C  0.00215674  0.61778333  0.48497106     0.19400
C1230       C  0.00178946  0.63199790  0.50346671    -0.18700
C1231       C  0.99606062  0.65464845  0.50102407    -0.11000
C1232       C  0.99110506  0.66379134  0.47982576     0.21600
C1233       C  0.99115271  0.64951207  0.46134881    -0.20300
C1234       C  0.99676455  0.62677940  0.46381934    -0.11200
C1235       C  0.98628743  0.68815709  0.47657894    -0.15300
C1236       C  0.99544054  0.70347651  0.48995613    -0.29200
C1237       C  0.00831005  0.59375502  0.48830414    -0.03500
C1238       C  0.00020516  0.57759465  0.47526212    -0.40000
H1239       H  0.00566938  0.62548235  0.51993939     0.12800
H1240       H  0.99537958  0.66486826  0.51585409     0.12400
H1241       H  0.98738520  0.65607674  0.44487413     0.11800
H1242       H  0.99734711  0.61646256  0.44905725     0.12100
H1243       H  0.97611788  0.69347344  0.46247030     0.14800
H1244       H  0.00670505  0.69782183  0.50306978     0.13600
H1245       H  0.01864622  0.58915261  0.50256997     0.11300
H1246       H  0.98862718  0.58200843  0.46193648     0.13300
C1247       C  0.63512237  0.99289946  0.50294802     0.19400
C1248       C  0.64934450  0.97407291  0.50479560    -0.18700
C1249       C  0.67252327  0.97616128  0.50257591    -0.11000
C1250       C  0.68199677  0.99724820  0.49863075     0.21600
C1251       C  0.66786080  0.01619928  0.49772928    -0.20300
C1252       C  0.64465822  0.01408684  0.49975233    -0.11200
C1253       C  0.70654377  0.00009396  0.49612548    -0.15300
C1254       C  0.72005802  0.98403262  0.48766765    -0.29200
C1255       C  0.61053163  0.98986107  0.50480603    -0.03500
C1256       C  0.59549659  0.00369183  0.49493760    -0.40000
H1257       H  0.64246862  0.95763223  0.50769191     0.12800
H1258       H  0.68295807  0.96128729  0.50425325     0.12400
H1259       H  0.67478285  0.03267883  0.49519576     0.11800
H1260       H  0.63431836  0.02909972  0.49908517     0.12100
H1261       H  0.71330260  0.01622855  0.50045815     0.14800
H1262       H  0.71278868  0.96866141  0.48162985     0.13600
H1263       H  0.60467821  0.97509301  0.51358108     0.11300
H1264       H  0.60115696  0.01775273  0.48499336     0.13300
C1265       C  0.91669925  0.90110660  0.32546296     0.19400
C1266       C  0.92215207  0.92279084  0.33251934    -0.18700
C1267       C  0.93609379  0.93631828  0.31948047    -0.11000
C1268       C  0.94488571  0.92842241  0.29912159     0.21600
C1269       C  0.93965452  0.90667108  0.29234875    -0.20300
C1270       C  0.92553245  0.89330514  0.30519879    -0.11200
C1271       C  0.95976746  0.94205304  0.28459942    -0.15300
C1272       C  0.95975589  0.96461631  0.28426336    -0.29200
C1273       C  0.90124168  0.88641849  0.33818434    -0.03500
C1274       C  0.89901640  0.88682322  0.36065284    -0.40000
H1275       H  0.91534236  0.92952612  0.34784632     0.12800
H1276       H  0.94009587  0.95280246  0.32553101     0.12400
H1277       H  0.94625039  0.90009463  0.27683380     0.11800
H1278       H  0.92156998  0.87671489  0.29932173     0.12100
H1279       H  0.97040766  0.93317946  0.27276663     0.14800
H1280       H  0.94856218  0.97391989  0.29518365     0.13600
H1281       H  0.89227615  0.87421482  0.32847778     0.11300
H1282       H  0.90897521  0.89857835  0.37001781     0.13300
C1283       C  0.93189225  0.79570954  0.44368655     0.19400
C1284       C  0.90965017  0.79084650  0.43827085    -0.18700
C1285       C  0.89679583  0.80564906  0.42515695    -0.11000
C1286       C  0.90583764  0.82571248  0.41711934     0.21600
C1287       C  0.92794791  0.83089948  0.42298931    -0.20300
C1288       C  0.94078381  0.81612658  0.43611995    -0.11200
C1289       C  0.89148280  0.84092993  0.40322723    -0.15300
C1290       C  0.89945968  0.85694112  0.38946769    -0.29200
C1291       C  0.94484196  0.77977258  0.45820311    -0.03500
C1292       C  0.96731821  0.77976459  0.45977699    -0.40000
H1293       H  0.90219490  0.77548444  0.44415374     0.12800
H1294       H  0.87972376  0.80132945  0.42116271     0.12400
H1295       H  0.93531266  0.84656377  0.41800754     0.11800
H1296       H  0.95742837  0.82118505  0.44073305     0.12100
H1297       H  0.87352097  0.83831895  0.40359957     0.14800
H1298       H  0.91739673  0.85919113  0.38810494     0.13600
H1299       H  0.93559097  0.76785392  0.46823289     0.11300
H1300       H  0.97684724  0.79091632  0.44922873     0.13300
C1301       C  0.85708198  0.90824007  0.42233149     0.19400
C1302       C  0.83469670  0.91304854  0.41652575    -0.18700
C1303       C  0.82179822  0.92819577  0.42913608    -0.11000
C1304       C  0.83095622  0.93883010  0.44791329     0.21600
C1305       C  0.85332632  0.93407408  0.45354454    -0.20300
C1306       C  0.86613105  0.91880772  0.44107945    -0.11200
C1307       C  0.81805217  0.95550069  0.46150294    -0.15300
C1308       C  0.79554412  0.95603151  0.46283585    -0.29200
C1309       C  0.87133893  0.89185902  0.40982717    -0.03500
C1310       C  0.86847417  0.88680747  0.38803241    -0.40000
H1311       H  0.82697651  0.90494380  0.40245609     0.12800
H1312       H  0.80481209  0.93176656  0.42384947     0.12400
H1313       H  0.86089347  0.94207589  0.46778423     0.11800
H1314       H  0.88328428  0.91537413  0.44601529     0.12100
H1315       H  0.82740217  0.96755871  0.47112678     0.14800
H1316       H  0.78602266  0.94344050  0.45417662     0.13600
H1317       H  0.88555416  0.88475966  0.41878234     0.11300
H1318       H  0.85574437  0.89598034  0.37866861     0.13300
C1319       C  0.81462425  0.80719098  0.31467293     0.19400
C1320       C  0.83689689  0.81296805  0.31034963    -0.18700
C1321       C  0.84822197  0.82770832  0.32428368    -0.11000
C1322       C  0.83763874  0.83678065  0.34327369     0.21600
C1323       C  0.81536338  0.83094116  0.34764419    -0.20300
C1324       C  0.80398819  0.81625579  0.33362115    -0.11200
C1325       C  0.84892611  0.85286868  0.35843121    -0.15300
C1326       C  0.87139556  0.85492887  0.35965511    -0.29200
C1327       C  0.80336183  0.79156053  0.29909697    -0.03500
C1328       C  0.78099210  0.78979951  0.29703479    -0.40000
H1329       H  0.84549898  0.80632580  0.29585748     0.12800
H1330       H  0.86506652  0.83222409  0.31972659     0.12400
H1331       H  0.80674314  0.83766804  0.36208299     0.11800
H1332       H  0.78703204  0.81188532  0.33791765     0.12100
H1333       H  0.83821749  0.86282612  0.36925065     0.14800
H1334       H  0.88188721  0.84363204  0.34996121     0.13600
H1335       H  0.81395327  0.78173530  0.28797600     0.11300
H1336       H  0.76989146  0.79999154  0.30722727     0.13300
C1337       C  0.63554392  0.25533113  0.48307227     0.19400
C1338       C  0.62110535  0.23712148  0.48172715    -0.18700
C1339       C  0.59807405  0.24056773  0.47905284    -0.11000
C1340       C  0.58887826  0.26242024  0.47815493     0.21600
C1341       C  0.60335472  0.28064407  0.47917839    -0.20300
C1342       C  0.62642772  0.27719121  0.48175651    -0.11200
C1343       C  0.56432038  0.26671089  0.47655450    -0.15300
C1344       C  0.54941407  0.25226453  0.48489965    -0.29200
C1345       C  0.65987052  0.25092494  0.48642286    -0.03500
C1346       C  0.67563737  0.26513677  0.47942202    -0.40000
H1347       H  0.62770017  0.22014111  0.48257813     0.12800
H1348       H  0.58760051  0.22604235  0.47755535     0.12400
H1349       H  0.59673017  0.29761942  0.47853306     0.11800
H1350       H  0.63694074  0.29168620  0.48327993     0.12100
H1351       H  0.55857620  0.28272882  0.46991307     0.14800
H1352       H  0.55543499  0.23714492  0.49316061     0.13600
H1353       H  0.66495911  0.23511709  0.49407185     0.11300
H1354       H  0.67080226  0.28029459  0.47047263     0.13300
C1355       C  0.76346316  0.07811759  0.47868708     0.19400
C1356       C  0.74432173  0.09174950  0.48146244    -0.18700
C1357       C  0.74568767  0.11508738  0.48057432    -0.11000
C1358       C  0.76640832  0.12547255  0.47717275     0.21600
C1359       C  0.78551439  0.11185684  0.47395916    -0.20300
C1360       C  0.78414698  0.08845566  0.47484005    -0.11200
C1361       C  0.76870841  0.15032127  0.47667663    -0.15300
C1362       C  0.75395054  0.16456162  0.48635469    -0.29200
C1363       C  0.76113905  0.05341795  0.48126507    -0.03500
C1364       C  0.77639687  0.03806612  0.47443374    -0.40000
H1365       H  0.72815989  0.08429260  0.48439549     0.12800
H1366       H  0.73039940  0.12481731  0.48238095     0.12400
H1367       H  0.80167913  0.11937118  0.47121419     0.11800
H1368       H  0.79940763  0.07868176  0.47307783     0.12100
H1369       H  0.78357760  0.15706285  0.46883711     0.14800
H1370       H  0.73959958  0.15813016  0.49526814     0.13600
H1371       H  0.74574747  0.04774804  0.48886245     0.11300
H1372       H  0.79098083  0.04327931  0.46509342     0.13300
C1373       C  0.93503575  0.23561803  0.49184312     0.19400
C1374       C  0.92187251  0.25527354  0.49206094    -0.18700
C1375       C  0.89862865  0.25437048  0.48998605    -0.11000
C1376       C  0.88796571  0.23371800  0.48742924     0.21600
C1377       C  0.90113563  0.21407938  0.48646794    -0.20300
C1378       C  0.92445842  0.21495482  0.48882141    -0.11200
C1379       C  0.86321583  0.23247408  0.48531837    -0.15300
C1380       C  0.84947339  0.24655192  0.49642639    -0.29200
C1381       C  0.95972564  0.23767008  0.49370777    -0.03500
C1382       C  0.97362424  0.22124170  0.50102182    -0.40000
H1383       H  0.92961012  0.27143914  0.49393496     0.12800
H1384       H  0.88907215  0.26990813  0.49004119     0.12400
H1385       H  0.89332836  0.19801187  0.48414180     0.11800
H1386       H  0.93412508  0.19952809  0.48784701     0.12100
H1387       H  0.85620854  0.21927345  0.47519842     0.14800
H1388       H  0.85654447  0.25862164  0.50782312     0.13600
H1389       H  0.96651731  0.25401023  0.48997889     0.11300
H1390       H  0.96690330  0.20552281  0.50696398     0.13300
C1391       C  0.76380273  0.24714599  0.61428386     0.19400
C1392       C  0.78344692  0.24683768  0.62702911    -0.18700
C1393       C  0.78246865  0.24520591  0.65019241    -0.11000
C1394       C  0.76169085  0.24434995  0.66117831     0.21600
C1395       C  0.74201522  0.24418751  0.64843119    -0.20300
C1396       C  0.74300279  0.24569818  0.62516738    -0.11200
C1397       C  0.76009315  0.24368800  0.68584211    -0.15300
C1398       C  0.77569024  0.25286915  0.69891590    -0.29200
C1399       C  0.76585683  0.24988226  0.58983414    -0.03500
C1400       C  0.75045777  0.24302468  0.57514679    -0.40000
H1401       H  0.79966186  0.24777686  0.61900760     0.12800
H1402       H  0.79804765  0.24448952  0.65936867     0.12400
H1403       H  0.72582974  0.24343337  0.65652538     0.11800
H1404       H  0.72748145  0.24633654  0.61589519     0.12100
H1405       H  0.74509628  0.23676561  0.69314480     0.14800
H1406       H  0.78954557  0.26164577  0.69132550     0.13600
H1407       H  0.78126158  0.25710908  0.58364004     0.11300
H1408       H  0.73551164  0.23459897  0.58079319     0.13300
C1409       C  0.77861195  0.98382760  0.57629572     0.19400
C1410       C  0.77106518  0.96692745  0.59063841    -0.18700
C1411       C  0.76735519  0.97130395  0.61324798    -0.11000
C1412       C  0.77143513  0.99266238  0.62204195     0.21600
C1413       C  0.77992178  0.00927873  0.60791139    -0.20300
C1414       C  0.78332536  0.00499809  0.58522304    -0.11200
C1415       C  0.76793185  0.99762074  0.64605884    -0.15300
C1416       C  0.75150784  0.98816002  0.65802459    -0.29200
C1417       C  0.78096948  0.97904977  0.55208604    -0.03500
C1418       C  0.77641493  0.99472709  0.53652221    -0.40000
H1419       H  0.76759229  0.95041716  0.58423364     0.12800
H1420       H  0.76158021  0.95786219  0.62386370     0.12400
H1421       H  0.78364360  0.02569788  0.61439233     0.11800
H1422       H  0.78979976  0.01821608  0.57474678     0.12100
H1423       H  0.77907162  0.00937902  0.65399782     0.14800
H1424       H  0.73969655  0.97729928  0.64979609     0.13600
H1425       H  0.78415758  0.96187100  0.54698246     0.11300
H1426       H  0.77095023  0.01130507  0.54174085     0.13300
C1427       C  0.76334979  0.16252744  0.74850672     0.19400
C1428       C  0.74332184  0.15061166  0.74727200    -0.18700
C1429       C  0.74356848  0.12737220  0.74479563    -0.11000
C1430       C  0.76395503  0.11536367  0.74347037     0.21600
C1431       C  0.78403589  0.12725921  0.74430210    -0.20300
C1432       C  0.78379645  0.15059822  0.74690334    -0.11200
C1433       C  0.76464083  0.09056509  0.74079316    -0.15300
C1434       C  0.74860356  0.07734610  0.74917797    -0.29200
C1435       C  0.76184552  0.18740317  0.74970071    -0.03500
C1436       C  0.77869371  0.20095587  0.75549042    -0.40000
H1437       H  0.72732303  0.15936822  0.74800993     0.12800
H1438       H  0.72773069  0.11895814  0.74344601     0.12400
H1439       H  0.79996187  0.11844820  0.74301602     0.11800
H1440       H  0.79958772  0.15918238  0.74709679     0.12100
H1441       H  0.77918771  0.08295494  0.73282919     0.14800
H1442       H  0.73496122  0.08475927  0.75869510     0.13600
H1443       H  0.74564684  0.19483626  0.74583872     0.11300
H1444       H  0.79445240  0.19393348  0.76142237     0.13300
C1445       C  0.89403683  0.24203654  0.23231515     0.19400
C1446       C  0.88097371  0.22329894  0.22765870    -0.18700
C1447       C  0.85774718  0.22554833  0.22499307    -0.11000
C1448       C  0.84716563  0.24668029  0.22707706     0.21600
C1449       C  0.86029358  0.26529855  0.23192460    -0.20300
C1450       C  0.88339048  0.26305133  0.23457218    -0.11200
C1451       C  0.82247743  0.25000915  0.22648845    -0.15300
C1452       C  0.80773604  0.23477952  0.21945377    -0.29200
C1453       C  0.91855912  0.23920541  0.23557754    -0.03500
C1454       C  0.93293912  0.25578802  0.23127183    -0.40000
H1455       H  0.88875292  0.20687849  0.22616973     0.12800
H1456       H  0.84824007  0.21063422  0.22194217     0.12400
H1457       H  0.85257905  0.28168495  0.23409459     0.11800
H1458       H  0.89272254  0.27775410  0.23899246     0.12100
H1459       H  0.81621496  0.26595607  0.23260598     0.14800
H1460       H  0.81349175  0.21952974  0.21141492     0.13600
H1461       H  0.92497007  0.22293195  0.24095446     0.11300
H1462       H  0.92683891  0.27152379  0.22425698     0.13300
C1463       C  0.70443581  0.19953719  0.17967751     0.19400
C1464       C  0.69189377  0.20756299  0.16147789    -0.18700
C1465       C  0.67573964  0.19416282  0.15151270    -0.11000
C1466       C  0.67210162  0.17226173  0.15920867     0.21600
C1467       C  0.68478589  0.16415253  0.17738591    -0.20300
C1468       C  0.70084355  0.17758896  0.18740945    -0.11200
C1469       C  0.65490981  0.15855672  0.14790583    -0.15300
C1470       C  0.65560926  0.13592160  0.14752441    -0.29200
C1471       C  0.72130512  0.21426236  0.19007467    -0.03500
C1472       C  0.72675684  0.21278832  0.21179533    -0.40000
H1473       H  0.69441373  0.22434895  0.15512697     0.12800
H1474       H  0.66620432  0.20085212  0.13756529     0.12400
H1475       H  0.68220404  0.14760009  0.18420058     0.11800
H1476       H  0.71056479  0.17061033  0.20105768     0.12100
H1477       H  0.64205697  0.16770070  0.13877865     0.14800
H1478       H  0.66884291  0.12724603  0.15665183     0.13600
H1479       H  0.72878410  0.22726414  0.17989135     0.11300
H1480       H  0.71836535  0.20071234  0.22235544     0.13300
C1481       C  0.75839754  0.23124077  0.32141301     0.19400
C1482       C  0.74188453  0.23894298  0.33617562    -0.18700
C1483       C  0.74682987  0.24173665  0.35869987    -0.11000
C1484       C  0.76836269  0.23654527  0.36689142     0.21600
C1485       C  0.78466368  0.22806932  0.35227248    -0.20300
C1486       C  0.77981473  0.22562016  0.32963350    -0.11200
C1487       C  0.77360157  0.23860561  0.39086400    -0.15300
C1488       C  0.76442856  0.25487641  0.40339208    -0.29200
C1489       C  0.75287484  0.22946022  0.29750472    -0.03500
C1490       C  0.76769044  0.23484335  0.28165298    -0.40000
H1491       H  0.72522380  0.24312159  0.33019518     0.12800
H1492       H  0.73365779  0.24752771  0.36974649     0.12400
H1493       H  0.80120131  0.22353974  0.35835599     0.11800
H1494       H  0.79270265  0.21910641  0.31864160     0.12100
H1495       H  0.78481620  0.22621880  0.39838400     0.14800
H1496       H  0.75417250  0.26788855  0.39559233     0.13600
H1497       H  0.73569101  0.22596740  0.29293962     0.11300
H1498       H  0.78413843  0.24068249  0.28637099     0.13300
C1499       C  0.76309323  0.67319340  0.25142888     0.19400
C1500       C  0.76206261  0.66218050  0.23083123    -0.18700
C1501       C  0.75906513  0.63908224  0.22981551    -0.11000
C1502       C  0.75700512  0.62635158  0.24946350     0.21600
C1503       C  0.75777113  0.63730868  0.27010362    -0.20300
C1504       C  0.76087645  0.66049507  0.27114072    -0.11200
C1505       C  0.75360263  0.60175992  0.24881112    -0.15300
C1506       C  0.76229784  0.58881666  0.23258183    -0.29200
C1507       C  0.76464180  0.69802459  0.25119827    -0.03500
C1508       C  0.76896663  0.71089211  0.26903276    -0.40000
H1509       H  0.76330188  0.67155137  0.21536617     0.12800
H1510       H  0.75787117  0.63134380  0.21359441     0.12400
H1511       H  0.75597801  0.62788603  0.28546796     0.11800
H1512       H  0.76094257  0.66834260  0.28733968     0.12100
H1513       H  0.74504507  0.59392905  0.26274618     0.14800
H1514       H  0.77268073  0.59623152  0.21973633     0.13600
H1515       H  0.76197237  0.70603995  0.23517548     0.11300
H1516       H  0.77364355  0.70331430  0.28485370     0.13300
C1517       C  0.58926492  0.49014349  0.24419815     0.19400
C1518       C  0.60501199  0.47283946  0.24088187    -0.18700
C1519       C  0.62761201  0.47765124  0.23758084    -0.11000
C1520       C  0.63493525  0.49993988  0.23783325     0.21600
C1521       C  0.61924763  0.51719623  0.24165409    -0.20300
C1522       C  0.59662007  0.51240675  0.24467331    -0.11200
C1523       C  0.65897933  0.50555483  0.23597549    -0.15300
C1524       C  0.67394404  0.49286396  0.22476826    -0.29200
C1525       C  0.56541557  0.48451833  0.24776429    -0.03500
C1526       C  0.54866533  0.49811557  0.24086435    -0.40000
H1527       H  0.59979029  0.45554995  0.24078812     0.12800
H1528       H  0.63935502  0.46384834  0.23550341     0.12400
H1529       H  0.62454551  0.53444221  0.24239425     0.11800
H1530       H  0.58502240  0.52610962  0.24789961     0.12100
H1531       H  0.66454758  0.52053640  0.24439945     0.14800
H1532       H  0.66841096  0.47846682  0.21540208     0.13600
H1533       H  0.56163577  0.46833958  0.25507547     0.11300
H1534       H  0.55256309  0.51328631  0.23169479     0.13300
C1535       C  0.76607170  0.32862967  0.24095863     0.19400
C1536       C  0.78421528  0.34230459  0.23565092    -0.18700
C1537       C  0.78287660  0.36541154  0.23896931    -0.11000
C1538       C  0.76351941  0.37526017  0.24818652     0.21600
C1539       C  0.74561899  0.36157495  0.25425724    -0.20300
C1540       C  0.74675575  0.33844472  0.25046693    -0.11200
C1541       C  0.76176388  0.39984549  0.25106989    -0.15300
C1542       C  0.76726642  0.41370368  0.23433409    -0.29200
C1543       C  0.76846683  0.30411863  0.23751825    -0.03500
C1544       C  0.75119352  0.29062317  0.23317079    -0.40000
H1545       H  0.79940118  0.33509890  0.22865939     0.12800
H1546       H  0.79703539  0.37560881  0.23447139     0.12400
H1547       H  0.73061583  0.36885042  0.26153735     0.11800
H1548       H  0.73274288  0.32827275  0.25537397     0.12100
H1549       H  0.75422598  0.40653619  0.26617171     0.14800
H1550       H  0.77233923  0.40671800  0.21837469     0.13600
H1551       H  0.78535697  0.29719794  0.23764018     0.11300
H1552       H  0.73452789  0.29774875  0.23083776     0.13300
C1553       C  0.93258887  0.50813776  0.23562171     0.19400
C1554       C  0.92056317  0.49485089  0.25067502    -0.18700
C1555       C  0.89716495  0.49557716  0.25103191    -0.11000
C1556       C  0.88524388  0.50985356  0.23636038     0.21600
C1557       C  0.89734278  0.52348003  0.22164416    -0.20300
C1558       C  0.92070452  0.52272913  0.22128022    -0.11200
C1559       C  0.86036981  0.51094305  0.23522954    -0.15300
C1560       C  0.84632069  0.49900285  0.24809368    -0.29200
C1561       C  0.95742472  0.50673054  0.23596493    -0.03500
C1562       C  0.97056908  0.51345305  0.21903220    -0.40000
H1563       H  0.92932381  0.48364682  0.26207948     0.12800
H1564       H  0.88873503  0.48478754  0.26272497     0.12400
H1565       H  0.88866879  0.53479262  0.21028314     0.11800
H1566       H  0.92923491  0.53386115  0.20996631     0.12100
H1567       H  0.85320869  0.52201328  0.22257845     0.14800
H1568       H  0.85254703  0.48782451  0.26102502     0.13600
H1569       H  0.96506152  0.49984424  0.25095511     0.11300
H1570       H  0.96329264  0.52063995  0.20401918     0.13300
C1571       C  0.88864319  0.49959460  0.48651802     0.19400
C1572       C  0.87625111  0.51961083  0.48384278    -0.18700
C1573       C  0.85322595  0.52042618  0.48832396    -0.11000
C1574       C  0.84203949  0.50108946  0.49540938     0.21600
C1575       C  0.85439413  0.48102246  0.49780192    -0.20300
C1576       C  0.87740040  0.48024354  0.49348418    -0.11200
C1577       C  0.81730349  0.50049003  0.49826350    -0.15300
C1578       C  0.80394805  0.51854593  0.50180942    -0.29200
C1579       C  0.91307548  0.49939200  0.48144673    -0.03500
C1580       C  0.92771122  0.48487539  0.49097037    -0.40000
H1581       H  0.88442823  0.53469634  0.47823782     0.12800
H1582       H  0.84419259  0.53602866  0.48556539     0.12400
H1583       H  0.84613360  0.46576155  0.50276027     0.11800
H1584       H  0.88613805  0.46432425  0.49507269     0.12100
H1585       H  0.80977158  0.48412269  0.49725396     0.14800
H1586       H  0.81116986  0.53476502  0.50504740     0.13600
H1587       H  0.91940830  0.51253291  0.47064963     0.11300
H1588       H  0.92187822  0.47275982  0.50311722     0.13300
C1589       C  0.75213514  0.50133367  0.35955988     0.19400
C1590       C  0.77041418  0.50048968  0.37416364    -0.18700
C1591       C  0.76769486  0.50583654  0.39665744    -0.11000
C1592       C  0.74641363  0.51164918  0.40519288     0.21600
C1593       C  0.72807198  0.51226518  0.39060733    -0.20300
C1594       C  0.73082491  0.50702577  0.36805273    -0.11200
C1595       C  0.74285046  0.51726362  0.42909840    -0.15300
C1596       C  0.75639552  0.50926986  0.44525679    -0.29200
C1597       C  0.75602557  0.49673998  0.33554066    -0.03500
C1598       C  0.74362523  0.50651632  0.31944995    -0.40000
H1599       H  0.78699522  0.49627420  0.36801415     0.12800
H1600       H  0.78243957  0.50585219  0.40710379     0.12400
H1601       H  0.71151425  0.51660963  0.39673094     0.11800
H1602       H  0.71621749  0.50727710  0.35740815     0.12100
H1603       H  0.72809884  0.52711229  0.43348147     0.14800
H1604       H  0.77008713  0.49801765  0.44086757     0.13600
H1605       H  0.77054543  0.48659984  0.33094930     0.11300
H1606       H  0.73000896  0.51787409  0.32388632     0.13300
C1607       C  0.66940629  0.58380579  0.57325189     0.19400
C1608       C  0.67448488  0.58937085  0.55102341    -0.18700
C1609       C  0.69098235  0.57737660  0.53913358    -0.11000
C1610       C  0.70266681  0.55929999  0.54920053     0.21600
C1611       C  0.69723750  0.55351175  0.57125782    -0.20300
C1612       C  0.68074584  0.56539227  0.58305832    -0.11200
C1613       C  0.72053578  0.54590514  0.53763929    -0.15300
C1614       C  0.72350429  0.54507865  0.51534182    -0.29200
C1615       C  0.65256467  0.59764153  0.58585620    -0.03500
C1616       C  0.65347706  0.59987444  0.60825154    -0.40000
H1617       H  0.66600319  0.60338335  0.54297848     0.12800
H1618       H  0.69473516  0.58264600  0.52228942     0.12400
H1619       H  0.70569350  0.53953593  0.57940498     0.11800
H1620       H  0.67684348  0.55987650  0.59979996     0.12100
H1621       H  0.73088890  0.53486447  0.54793145     0.14800
H1622       H  0.71300664  0.55522960  0.50441628     0.13600
H1623       H  0.64020151  0.60707622  0.57631996     0.11300
H1624       H  0.66662740  0.59088347  0.61721213     0.13300
C1625       C  0.75782614  0.37813375  0.49513452     0.19400
C1626       C  0.73850083  0.39174640  0.49424056    -0.18700
C1627       C  0.73991992  0.41497199  0.49654667    -0.11000
C1628       C  0.76083384  0.42503983  0.49961427     0.21600
C1629       C  0.78014191  0.41138740  0.50039804    -0.20300
C1630       C  0.77869807  0.38819099  0.49825311    -0.11200
C1631       C  0.76352801  0.44968910  0.50000338    -0.15300
C1632       C  0.74693641  0.46441685  0.50462325    -0.29200
C1633       C  0.75585287  0.35369070  0.49158559    -0.03500
C1634       C  0.77016222  0.33857992  0.50058116    -0.40000
H1635       H  0.72227249  0.38439124  0.49154268     0.12800
H1636       H  0.72472106  0.42492786  0.49511060     0.12400
H1637       H  0.79648797  0.41874400  0.50233138     0.11800
H1638       H  0.79401663  0.37829087  0.49833711     0.12100
H1639       H  0.78011384  0.45583487  0.49633160     0.14800
H1640       H  0.73081764  0.45855710  0.51037713     0.13600
H1641       H  0.74166261  0.34790703  0.48197440     0.11300
H1642       H  0.78332901  0.34397917  0.51171414     0.13300
C1643       C  0.51105922  0.61247737  0.99335430     0.19400
C1644       C  0.49129587  0.62515936  0.98968212    -0.18700
C1645       C  0.49127986  0.64854642  0.99140662    -0.11000
C1646       C  0.51100092  0.65987171  0.99688806     0.21600
C1647       C  0.53059319  0.64718203  0.00085141    -0.20300
C1648       C  0.53062528  0.62381898  0.99909145    -0.11200
C1649       C  0.51163554  0.68466210  0.99971358    -0.15300
C1650       C  0.49659122  0.69910452  0.99064485    -0.29200
C1651       C  0.51181203  0.58748465  0.99236488    -0.03500
C1652       C  0.49623612  0.57511710  0.98210821    -0.40000
H1653       H  0.47560952  0.61718874  0.98607584     0.12800
H1654       H  0.47561619  0.65755322  0.98904293     0.12400
H1655       H  0.54597458  0.65538305  0.00535884     0.11800
H1656       H  0.54603204  0.61455743  0.00227292     0.12100
H1657       H  0.52569995  0.69121880  0.00890432     0.14800
H1658       H  0.48363526  0.69292225  0.97972739     0.13600
H1659       H  0.52597832  0.57894840  0.00017395     0.11300
H1660       H  0.48239645  0.58322967  0.97344089     0.13300
C1661       C  0.48916388  0.97893187  0.62178323     0.19400
C1662       C  0.47677188  0.99309346  0.63590201    -0.18700
C1663       C  0.47240621  0.98679970  0.65792067    -0.11000
C1664       C  0.48020465  0.96605106  0.66623092     0.21600
C1665       C  0.49166324  0.95141164  0.65185850    -0.20300
C1666       C  0.49623406  0.95780102  0.62985036    -0.11200
C1667       C  0.47759325  0.95989367  0.69007711    -0.15300
C1668       C  0.48000315  0.97528686  0.70606802    -0.29200
C1669       C  0.49321875  0.98633657  0.59847687    -0.03500
C1670       C  0.50985844  0.97827595  0.58547610    -0.40000
H1671       H  0.47068411  0.00922214  0.62995424     0.12800
H1672       H  0.46299552  0.99820668  0.66845391     0.12400
H1673       H  0.49760836  0.93524320  0.65785212     0.11800
H1674       H  0.50505091  0.94605594  0.61921369     0.12100
H1675       H  0.47652718  0.94230934  0.69463179     0.14800
H1676       H  0.48365308  0.99243340  0.70137842     0.13600
H1677       H  0.48183117  0.99901562  0.59173386     0.11300
H1678       H  0.52186292  0.96610317  0.59199978     0.13300
C1679       C  0.62109261  0.98071742  0.74047290     0.19400
C1680       C  0.60903877  0.96121513  0.73619633    -0.18700
C1681       C  0.58584268  0.96085600  0.73936328    -0.11000
C1682       C  0.57429217  0.98014980  0.74667602     0.21600
C1683       C  0.58625242  0.99979939  0.75028948    -0.20300
C1684       C  0.60939026  0.00012250  0.74728027    -0.11200
C1685       C  0.54967287  0.98094333  0.74938163    -0.15300
C1686       C  0.53729089  0.96306008  0.75459582    -0.29200
C1687       C  0.64574800  0.98040052  0.73742187    -0.03500
C1688       C  0.65931603  0.99404288  0.74874080    -0.40000
H1689       H  0.61762467  0.94616871  0.73058624     0.12800
H1690       H  0.57699784  0.94564586  0.73568002     0.12400
H1691       H  0.57763423  0.01500344  0.75545691     0.11800
H1692       H  0.61791895  0.01572668  0.74990152     0.12100
H1693       H  0.54169171  0.99727837  0.74791526     0.14800
H1694       H  0.54540142  0.94704559  0.75816274     0.13600
H1695       H  0.65301192  0.96776218  0.72652006     0.11300
H1696       H  0.65241139  0.00568395  0.76084304     0.13300
C1697       C  0.31036255  0.92515995  0.93337263     0.19400
C1698       C  0.33176363  0.91784419  0.94012149    -0.18700
C1699       C  0.34435315  0.90308439  0.92690843    -0.11000
C1700       C  0.33582424  0.89555334  0.90647773     0.21600
C1701       C  0.31447263  0.90298016  0.89968308    -0.20300
C1702       C  0.30178148  0.91752245  0.91301632    -0.11200
C1703       C  0.34929675  0.88148798  0.89098919    -0.15300
C1704       C  0.36624817  0.86763358  0.89730652    -0.29200
C1705       C  0.29808863  0.94171669  0.94732519    -0.03500
C1706       C  0.27560859  0.94369137  0.94802136    -0.40000
H1707       H  0.33884874  0.92373531  0.95560434     0.12800
H1708       H  0.36099890  0.89828235  0.93238302     0.12400
H1709       H  0.30768281  0.89769820  0.88384463     0.11800
H1710       H  0.28563016  0.92329926  0.90698059     0.12100
H1711       H  0.34503693  0.88247933  0.87338180     0.14800
H1712       H  0.37004287  0.86550648  0.91489815     0.13600
H1713       H  0.30793876  0.95223093  0.95819375     0.11300
H1714       H  0.26530445  0.93262197  0.93823538     0.13300
C1715       C  0.42402858  0.82818021  0.92114441     0.19400
C1716       C  0.44517610  0.83316628  0.92978246    -0.18700
C1717       C  0.45661271  0.81778031  0.94358464    -0.11000
C1718       C  0.44696625  0.79708837  0.94922125     0.21600
C1719       C  0.42563220  0.79236931  0.94092447    -0.20300
C1720       C  0.41429911  0.80764650  0.92708060    -0.11200
C1721       C  0.45794469  0.78049552  0.96453651    -0.15300
C1722       C  0.48008785  0.77966951  0.96858327    -0.29200
C1723       C  0.41168655  0.84505140  0.90720074    -0.03500
C1724       C  0.39665066  0.83888072  0.89177258    -0.40000
H1725       H  0.45283395  0.84903589  0.92589204     0.12800
H1726       H  0.47267444  0.82248317  0.95021874     0.12400
H1727       H  0.41759806  0.77680877  0.94529452     0.11800
H1728       H  0.39762252  0.80353654  0.92158545     0.12100
H1729       H  0.44742896  0.76815933  0.97260965     0.14800
H1730       H  0.49105159  0.79118371  0.96000248     0.13600
H1731       H  0.41433933  0.86272991  0.91021306     0.11300
H1732       H  0.39539491  0.82111689  0.88816442     0.13300
C1733       C  0.43635894  0.91803958  0.80677434     0.19400
C1734       C  0.41667956  0.92275767  0.81873812    -0.18700
C1735       C  0.40661404  0.90636684  0.83191582    -0.11000
C1736       C  0.41625678  0.88475843  0.83394309     0.21600
C1737       C  0.43560572  0.87979377  0.82147395    -0.20300
C1738       C  0.44565036  0.89623078  0.80812363    -0.11200
C1739       C  0.40625075  0.86707169  0.84849368    -0.15300
C1740       C  0.39235919  0.87198623  0.86559037    -0.29200
C1741       C  0.44717107  0.93676113  0.79438646    -0.03500
C1742       C  0.46243784  0.93398716  0.77799930    -0.40000
H1743       H  0.40901267  0.93929680  0.81792097     0.12800
H1744       H  0.39114698  0.91079424  0.84025939     0.12400
H1745       H  0.44327953  0.86326730  0.82246249     0.11800
H1746       H  0.46101321  0.89191214  0.79952553     0.12100
H1747       H  0.41027941  0.84962871  0.84506498     0.14800
H1748       H  0.38972183  0.88946426  0.86981310     0.13600
H1749       H  0.44188540  0.95347911  0.79908583     0.11300
H1750       H  0.46654103  0.91717603  0.77238473     0.13300
C1751       C  0.67077583  0.76086008  0.26957868     0.19400
C1752       C  0.65597111  0.76036017  0.28771074    -0.18700
C1753       C  0.63341689  0.75541934  0.28454678    -0.11000
C1754       C  0.62509195  0.75112947  0.26304943     0.21600
C1755       C  0.63987688  0.75142226  0.24492508    -0.20300
C1756       C  0.66242667  0.75649933  0.24805820    -0.11200
C1757       C  0.60097997  0.74693067  0.25910553    -0.15300
C1758       C  0.58512307  0.75742828  0.27115389    -0.29200
C1759       C  0.69472257  0.76589050  0.27377670    -0.03500
C1760       C  0.71118054  0.75886028  0.26012381    -0.40000
H1761       H  0.66192903  0.76356088  0.30443385     0.12800
H1762       H  0.62257078  0.75479130  0.29899151     0.12400
H1763       H  0.63383012  0.74830681  0.22821427     0.11800
H1764       H  0.67305766  0.75738387  0.23349646     0.12100
H1765       H  0.59620334  0.73645840  0.24518519     0.14800
H1766       H  0.59005994  0.76924343  0.28388373     0.13600
H1767       H  0.69891329  0.77420238  0.28923473     0.11300
H1768       H  0.70702268  0.74907323  0.24557992     0.13300
C1769       C  0.50525914  0.58086988  0.24231722     0.19400
C1770       C  0.52488821  0.59230670  0.23678830    -0.18700
C1771       C  0.52577969  0.61560730  0.23822952    -0.11000
C1772       C  0.50710186  0.62812997  0.24534456     0.21600
C1773       C  0.48718344  0.61678490  0.25035519    -0.20300
C1774       C  0.48627533  0.59342103  0.24888380    -0.11200
C1775       C  0.50899146  0.65292364  0.24676040    -0.15300
C1776       C  0.49518533  0.66588238  0.25905861    -0.29200
C1777       C  0.50553571  0.55601052  0.24053873    -0.03500
C1778       C  0.48958889  0.54233811  0.24847951    -0.40000
H1779       H  0.53971981  0.58315532  0.23143850     0.12800
H1780       H  0.54123582  0.62386472  0.23398408     0.12400
H1781       H  0.47209345  0.62580437  0.25501944     0.11800
H1782       H  0.47059296  0.58545723  0.25261949     0.12100
H1783       H  0.52264524  0.66072179  0.23777601     0.14800
H1784       H  0.48191455  0.65840926  0.26878584     0.13600
H1785       H  0.52049234  0.54860180  0.23323711     0.11300
H1786       H  0.47535341  0.54905542  0.25758235     0.13300
C1787       C  0.49979781  0.74899688  0.08816662     0.19400
C1788       C  0.51829146  0.74384794  0.10180795    -0.18700
C1789       C  0.51718198  0.74662704  0.12489680    -0.11000
C1790       C  0.49734976  0.75446188  0.13503593     0.21600
C1791       C  0.47887225  0.75978764  0.12144360    -0.20300
C1792       C  0.47996097  0.75696972  0.09829644    -0.11200
C1793       C  0.49538279  0.75763137  0.15957518    -0.15300
C1794       C  0.50869087  0.74708652  0.17456893    -0.29200
C1795       C  0.50236485  0.74594521  0.06363060    -0.03500
C1796       C  0.48742203  0.75287241  0.04814042    -0.40000
H1797       H  0.53385388  0.73784181  0.09453480     0.12800
H1798       H  0.53206280  0.74298246  0.13457001     0.12400
H1799       H  0.46341156  0.76593488  0.12880031     0.11800
H1800       H  0.46516324  0.76095600  0.08865245     0.12100
H1801       H  0.48183171  0.76836986  0.16554380     0.14800
H1802       H  0.52159575  0.73539270  0.16910485     0.13600
H1803       H  0.51816635  0.73869836  0.05812571     0.11300
H1804       H  0.47215477  0.76154038  0.05305262     0.13300
C1805       C  0.49896428  0.87809498  0.24223177     0.19400
C1806       C  0.50968171  0.88990845  0.22509084    -0.18700
C1807       C  0.51070205  0.91331494  0.22566042    -0.11000
C1808       C  0.50067552  0.92527302  0.24329296     0.21600
C1809       C  0.48950836  0.91341731  0.26008638    -0.20300
C1810       C  0.48873874  0.89010130  0.25965929    -0.11200
C1811       C  0.50023252  0.95007675  0.24426712    -0.15300
C1812       C  0.51573600  0.96323607  0.23483858    -0.29200
C1813       C  0.49813111  0.85331849  0.24145726    -0.03500
C1814       C  0.49902087  0.84075559  0.26010700    -0.40000
H1815       H  0.51739157  0.88099512  0.21133531     0.12800
H1816       H  0.51882670  0.92193870  0.21205091     0.12400
H1817       H  0.48132936  0.92225789  0.27363767     0.11800
H1818       H  0.47975260  0.88152989  0.27276978     0.12100
H1819       H  0.48646241  0.95749663  0.25347343     0.14800
H1820       H  0.52957976  0.95573080  0.22568979     0.13600
H1821       H  0.49793953  0.84523792  0.22526638     0.11300
H1822       H  0.50129039  0.84872619  0.27617165     0.13300
C1823       C  0.31600773  0.79227920  0.81403596     0.19400
C1824       C  0.32438573  0.78783520  0.83542847    -0.18700
C1825       C  0.33892400  0.80270505  0.84567699    -0.11000
C1826       C  0.34494899  0.82283314  0.83496346     0.21600
C1827       C  0.33667338  0.82717623  0.81345506    -0.20300
C1828       C  0.32228408  0.81216277  0.80311201    -0.11200
C1829       C  0.36010594  0.83937023  0.84544826    -0.15300
C1830       C  0.36389692  0.83983227  0.86758604    -0.29200
C1831       C  0.30038028  0.77611564  0.80388443    -0.03500
C1832       C  0.29828299  0.77368173  0.78174635    -0.40000
H1833       H  0.31992385  0.77259797  0.84413179     0.12800
H1834       H  0.34556953  0.79800978  0.86181228     0.12400
H1835       H  0.34108763  0.84241563  0.80474177     0.11800
H1836       H  0.31573050  0.81649078  0.78681348     0.12100
H1837       H  0.36782991  0.85159200  0.83460735     0.14800
H1838       H  0.35473533  0.82849511  0.87829375     0.13600
H1839       H  0.29074302  0.76542556  0.81489640     0.11300
H1840       H  0.30869061  0.78344289  0.77062458     0.13300
C1841       C  0.98092390  0.73678002  0.57696334     0.19400
C1842       C  0.98194775  0.75595542  0.59038864    -0.18700
C1843       C  0.98231824  0.75392332  0.61358709    -0.11000
C1844       C  0.98189533  0.73269068  0.62383355     0.21600
C1845       C  0.97982002  0.71365328  0.61049382    -0.20300
C1846       C  0.97957675  0.71566400  0.58726081    -0.11200
C1847       C  0.98418497  0.72997673  0.64830796    -0.15300
C1848       C  0.99682571  0.74378480  0.66043237    -0.29200
C1849       C  0.98333618  0.73791468  0.55238291    -0.03500
C1850       C  0.97957687  0.75648944  0.54005117    -0.40000
H1851       H  0.98334651  0.77248870  0.58314288     0.12800
H1852       H  0.98321955  0.76900382  0.62345133     0.12400
H1853       H  0.97924879  0.69715321  0.61802854     0.11800
H1854       H  0.97882246  0.70063073  0.57728301     0.12100
H1855       H  0.97641745  0.71567202  0.65626043     0.14800
H1856       H  0.00572755  0.75726287  0.65226650     0.13600
H1857       H  0.98855331  0.72258755  0.54406261     0.11300
H1858       H  0.97217647  0.77140694  0.54741214     0.13300
C1859       C  0.13257748  0.74324119  0.75389198     0.19400
C1860       C  0.14474240  0.74274987  0.77390467    -0.18700
C1861       C  0.16805177  0.74435369  0.77372249    -0.11000
C1862       C  0.17962708  0.74630362  0.75340143     0.21600
C1863       C  0.16744342  0.74673937  0.73340599    -0.20300
C1864       C  0.14415973  0.74529315  0.73359634    -0.11200
C1865       C  0.20437499  0.74595874  0.75214253    -0.15300
C1866       C  0.21797272  0.75159439  0.76900419    -0.29200
C1867       C  0.10803550  0.74024987  0.75472271    -0.03500
C1868       C  0.09397368  0.74799718  0.73886155    -0.40000
H1869       H  0.13618701  0.74087306  0.78972444     0.12800
H1870       H  0.17691675  0.74327290  0.78942323     0.12400
H1871       H  0.17602081  0.74784859  0.71751988     0.11800
H1872       H  0.13542871  0.74502423  0.71780708     0.12100
H1873       H  0.21170223  0.74119472  0.73624921     0.14800
H1874       H  0.21121508  0.75865051  0.78426992     0.13600
H1875       H  0.10121932  0.73199402  0.76937854     0.11300
H1876       H  0.10019766  0.75778869  0.72494326     0.13300
C1877       C  0.27025884  0.49017492  0.56848169     0.19400
C1878       C  0.25581354  0.47775102  0.58200466    -0.18700
C1879       C  0.25561637  0.48062876  0.60512578    -0.11000
C1880       C  0.26945993  0.49648477  0.61519572     0.21600
C1881       C  0.28373476  0.50917670  0.60166410    -0.20300
C1882       C  0.28438848  0.50583115  0.57850635    -0.11200
C1883       C  0.26861193  0.50016751  0.63970840    -0.15300
C1884       C  0.26785278  0.48277405  0.65397877    -0.29200
C1885       C  0.26856609  0.48804374  0.54389614    -0.03500
C1886       C  0.28629038  0.48853365  0.53006833    -0.40000
H1887       H  0.24453317  0.46585768  0.57461202     0.12800
H1888       H  0.24414610  0.47089492  0.61509175     0.12400
H1889       H  0.29442670  0.52159874  0.60903616     0.11800
H1890       H  0.29530527  0.51601725  0.56838219     0.12100
H1891       H  0.26953364  0.51712584  0.64606225     0.14800
H1892       H  0.26914461  0.46587654  0.64739866     0.13600
H1893       H  0.25203436  0.48521071  0.53700588     0.11300
H1894       H  0.30312923  0.48905303  0.53684396     0.13300
C1895       C  0.25605425  0.65662066  0.75931940     0.19400
C1896       C  0.23607358  0.64595725  0.75358601    -0.18700
C1897       C  0.23611951  0.62345897  0.74734542    -0.11000
C1898       C  0.25611554  0.61091159  0.74688803     0.21600
C1899       C  0.27621591  0.62150940  0.75259979    -0.20300
C1900       C  0.27619560  0.64409090  0.75877305    -0.11200
C1901       C  0.25527630  0.58689065  0.74044411    -0.15300
C1902       C  0.27048974  0.57165114  0.74748128    -0.29200
C1903       C  0.25498470  0.68110859  0.76385635    -0.03500
C1904       C  0.27259274  0.69408371  0.76869849    -0.40000
H1905       H  0.22031536  0.65517705  0.75358900     0.12800
H1906       H  0.22041978  0.61578984  0.74297064     0.12400
H1907       H  0.29210294  0.61263016  0.75182438     0.11800
H1908       H  0.29205952  0.65158202  0.76258877     0.12100
H1909       H  0.24073189  0.58125497  0.73129653     0.14800
H1910       H  0.28414362  0.57676853  0.75811638     0.13600
H1911       H  0.23862461  0.68905083  0.76207667     0.11300
H1912       H  0.28887874  0.68677723  0.77240002     0.13300
C1913       C  0.25583100  0.57675280  0.48934289     0.19400
C1914       C  0.25457863  0.58906819  0.50913385    -0.18700
C1915       C  0.25278240  0.61237800  0.50846311    -0.11000
C1916       C  0.25201352  0.62380071  0.48789884     0.21600
C1917       C  0.25207433  0.61143394  0.46810266    -0.20300
C1918       C  0.25406369  0.58810038  0.46876684    -0.11200
C1919       C  0.25077663  0.64854309  0.48668964    -0.15300
C1920       C  0.26054039  0.66152531  0.50199008    -0.29200
C1921       C  0.25903289  0.55216092  0.49081107    -0.03500
C1922       C  0.27009004  0.54044156  0.47512763    -0.40000
H1923       H  0.25546122  0.58065220  0.52517231     0.12800
H1924       H  0.25186503  0.62138602  0.52405658     0.12400
H1925       H  0.25099818  0.61987469  0.45209593     0.11800
H1926       H  0.25409758  0.57903720  0.45319697     0.12100
H1927       H  0.24241494  0.65621661  0.47242327     0.14800
H1928       H  0.27012377  0.65393935  0.51551082     0.13600
H1929       H  0.25370989  0.54401278  0.50605575     0.11300
H1930       H  0.27702316  0.54914823  0.46082922     0.13300
C1931       C  0.27271899  0.74994104  0.67205871     0.19400
C1932       C  0.26960192  0.76790112  0.65723883    -0.18700
C1933       C  0.26700509  0.76400202  0.63449297    -0.11000
C1934       C  0.26784539  0.74203729  0.62619340     0.21600
C1935       C  0.27185863  0.72412372  0.64087392    -0.20300
C1936       C  0.27410570  0.72799218  0.66369144    -0.11200
C1937       C  0.26560686  0.73770135  0.60212670    -0.15300
C1938       C  0.25136559  0.74967513  0.58934377    -0.29200
C1939       C  0.27476854  0.75456004  0.69611709    -0.03500
C1940       C  0.26674947  0.74046862  0.71154112    -0.40000
H1941       H  0.26885048  0.78494347  0.66332455     0.12800
H1942       H  0.26468693  0.77818854  0.62337031     0.12400
H1943       H  0.27302070  0.70713710  0.63469605     0.11800
H1944       H  0.27724686  0.71386434  0.67468839     0.12100
H1945       H  0.27583765  0.72443481  0.59484868     0.14800
H1946       H  0.24013043  0.76192524  0.59692479     0.13600
H1947       H  0.28172343  0.77045813  0.70106526     0.11300
H1948       H  0.25793766  0.72562801  0.70630825     0.13300
C1949       C  0.12707486  0.74918745  0.50551992     0.19400
C1950       C  0.11334908  0.76767348  0.51083530    -0.18700
C1951       C  0.09010075  0.76647505  0.50881574    -0.11000
C1952       C  0.08013174  0.74659370  0.50169333     0.21600
C1953       C  0.09377747  0.72788003  0.49707703    -0.20300
C1954       C  0.11704211  0.72915464  0.49883435    -0.11200
C1955       C  0.05554632  0.74460355  0.49976997    -0.15300
C1956       C  0.04208452  0.76184936  0.49382330    -0.29200
C1957       C  0.15168339  0.75122145  0.50775375    -0.03500
C1958       C  0.16643084  0.73901282  0.49574763    -0.40000
H1959       H  0.12065899  0.78316114  0.51638538     0.12800
H1960       H  0.07997103  0.78097152  0.51318933     0.12400
H1961       H  0.08640984  0.71226844  0.49195792     0.11800
H1962       H  0.12702733  0.71432200  0.49536000     0.12100
H1963       H  0.04852307  0.72808276  0.50200699     0.14800
H1964       H  0.04920927  0.77783358  0.48919521     0.13600
H1965       H  0.15783586  0.76398747  0.51894214     0.11300
H1966       H  0.16058025  0.72715669  0.48348525     0.13300
C1967       C  0.52450497  0.86888011  0.50425579     0.19400
C1968       C  0.53131246  0.85686162  0.52331401    -0.18700
C1969       C  0.52964902  0.83353128  0.52419914    -0.11000
C1970       C  0.52147142  0.82165342  0.50577097     0.21600
C1971       C  0.51522680  0.83369608  0.48650446    -0.20300
C1972       C  0.51677458  0.85701089  0.48568114    -0.11200
C1973       C  0.51816409  0.79699037  0.50608248    -0.15300
C1974       C  0.52662232  0.78281760  0.52160742    -0.29200
C1975       C  0.52559038  0.89371507  0.50442190    -0.03500
C1976       C  0.51177305  0.90701802  0.49231131    -0.40000
H1977       H  0.53739744  0.86562374  0.53781909     0.12800
H1978       H  0.53429646  0.82510643  0.53953825     0.12400
H1979       H  0.50896589  0.82502690  0.47201611     0.11800
H1980       H  0.51200863  0.86561662  0.47045252     0.12100
H1981       H  0.50867078  0.79020047  0.49234181     0.14800
H1982       H  0.53781426  0.78880966  0.53439442     0.13600
H1983       H  0.53707592  0.90129806  0.51611476     0.11300
H1984       H  0.49917463  0.89973059  0.48166306     0.13300
C1985       C  0.60492136  0.65830616  0.58606624     0.19400
C1986       C  0.60642541  0.66626436  0.56403932    -0.18700
C1987       C  0.58925484  0.67967107  0.55476867    -0.11000
C1988       C  0.57030762  0.68577096  0.56750475     0.21600
C1989       C  0.56912375  0.67830346  0.58970768    -0.20300
C1990       C  0.58608658  0.66460768  0.59884428    -0.11200
C1991       C  0.55224700  0.70093479  0.55857901    -0.15300
C1992       C  0.54642925  0.70177399  0.53686444    -0.29200
C1993       C  0.62359451  0.64439541  0.59571716    -0.03500
C1994       C  0.62009694  0.62820523  0.61106992    -0.40000
H1995       H  0.62089808  0.66202033  0.55394730     0.12800
H1996       H  0.59114806  0.68569815  0.53783537     0.12400
H1997       H  0.55498016  0.68307555  0.60003852     0.11800
H1998       H  0.58467480  0.65946063  0.61611517     0.12100
H1999       H  0.54327780  0.71162701  0.57027165     0.14800
H2000       H  0.55454236  0.69030549  0.52530932     0.13600
H2001       H  0.64052185  0.64729848  0.58988631     0.11300
H2002       H  0.60292542  0.62501491  0.61597702     0.13300
C2003       C  0.49373851  0.72847671  0.38419502     0.19400
C2004       C  0.47751194  0.72900030  0.40107276    -0.18700
C2005       C  0.48382680  0.72641123  0.42345177    -0.11000
C2006       C  0.50647741  0.72282655  0.42919610     0.21600
C2007       C  0.52246758  0.72118328  0.41216875    -0.20300
C2008       C  0.51622404  0.72418304  0.38991080    -0.11200
C2009       C  0.51400502  0.72070486  0.45270447    -0.15300
C2010       C  0.50411851  0.73219279  0.46930271    -0.29200
C2011       C  0.48730627  0.73255737  0.36063552    -0.03500
C2012       C  0.49959027  0.74608914  0.34774279    -0.40000
H2013       H  0.46005852  0.73196008  0.39697429     0.12800
H2014       H  0.47098631  0.72706828  0.43617781     0.12400
H2015       H  0.53993728  0.71811377  0.41614650     0.11800
H2016       H  0.52899386  0.72314596  0.37711272     0.12100
H2017       H  0.52902188  0.71079005  0.45600823     0.14800
H2018       H  0.49018988  0.74344560  0.46545522     0.13600
H2019       H  0.47243791  0.72473067  0.35403139     0.11300
H2020       H  0.51350911  0.75486183  0.35520285     0.13300
C2021       C  0.37917261  0.74332882  0.51948856     0.19400
C2022       C  0.39124036  0.73318906  0.53710047    -0.18700
C2023       C  0.41474199  0.73219346  0.53683888    -0.11000
C2024       C  0.42668429  0.74122240  0.51875875     0.21600
C2025       C  0.41457197  0.75147843  0.50129821    -0.20300
C2026       C  0.39121342  0.75250589  0.50157637    -0.11200
C2027       C  0.45153416  0.73988777  0.51652118    -0.15300
C2028       C  0.46631949  0.73283816  0.53221469    -0.29200
C2029       C  0.35418616  0.74276802  0.51970221    -0.03500
C2030       C  0.34087472  0.75579686  0.50663755    -0.40000
H2031       H  0.38242894  0.72579061  0.55103416     0.12800
H2032       H  0.42330476  0.72397358  0.55055523     0.12400
H2033       H  0.42324322  0.75849015  0.48706568     0.11800
H2034       H  0.38281048  0.75989951  0.48732458     0.12100
H2035       H  0.45792267  0.74478990  0.50032326     0.14800
H2036       H  0.46061422  0.72654111  0.54818321     0.13600
H2037       H  0.34643770  0.73099169  0.53110637     0.11300
H2038       H  0.34802972  0.76844583  0.49587138     0.13300
C2039       C  0.10430797  0.59239206  0.16268023     0.19400
C2040       C  0.08477701  0.59802814  0.17454999    -0.18700
C2041       C  0.07351171  0.58193538  0.18708274    -0.11000
C2042       C  0.08160266  0.55973578  0.18820538     0.21600
C2043       C  0.10158024  0.55418145  0.17708900    -0.20300
C2044       C  0.11279146  0.57027253  0.16432316    -0.11200
C2045       C  0.06939443  0.54230784  0.20096188    -0.15300
C2046       C  0.04689524  0.54175761  0.20105787    -0.29200
C2047       C  0.11525941  0.61029647  0.14928982    -0.03500
C2048       C  0.13069546  0.60665892  0.13317500    -0.40000
H2049       H  0.07802707  0.61495918  0.17393871     0.12800
H2050       H  0.05851367  0.58693542  0.19601983     0.12400
H2051       H  0.10832014  0.53726327  0.17799091     0.11800
H2052       H  0.12814556  0.56528248  0.15608298     0.12100
H2053       H  0.07891547  0.52919633  0.20947934     0.14800
H2054       H  0.03767129  0.55408930  0.19116474     0.13600
H2055       H  0.10983198  0.62747114  0.15233260     0.11300
H2056       H  0.13595463  0.58961023  0.12952033     0.13300
C2057       C  0.37239845  0.74863522  0.25805131     0.19400
C2058       C  0.35908510  0.72951483  0.25706924    -0.18700
C2059       C  0.33599606  0.73147489  0.25338163    -0.11000
C2060       C  0.32571870  0.75270433  0.25087197     0.21600
C2061       C  0.33896049  0.77182342  0.25248803    -0.20300
C2062       C  0.36205085  0.76985619  0.25592266    -0.11200
C2063       C  0.30112392  0.75561941  0.24811358    -0.15300
C2064       C  0.28793171  0.74010215  0.23892287    -0.29200
C2065       C  0.39691475  0.74599690  0.26170566    -0.03500
C2066       C  0.41175302  0.76042006  0.25314245    -0.40000
H2067       H  0.36660491  0.71300638  0.25900321     0.12800
H2068       H  0.32622142  0.71638266  0.25304852     0.12400
H2069       H  0.33139518  0.78837333  0.25109183     0.11800
H2070       H  0.37166886  0.78498524  0.25732264     0.12100
H2071       H  0.29386577  0.77145453  0.25342375     0.14800
H2072       H  0.29542135  0.72512693  0.23173463     0.13600
H2073       H  0.40296283  0.73113371  0.27046971     0.11300
H2074       H  0.40589318  0.77433938  0.24287280     0.13300
C2075       C  0.25046799  0.74338336  0.37695517     0.19400
C2076       C  0.23714593  0.72876395  0.36458781    -0.18700
C2077       C  0.23671166  0.72975088  0.34127919    -0.11000
C2078       C  0.24963445  0.74551045  0.32970521     0.21600
C2079       C  0.26334909  0.75978267  0.34200806    -0.20300
C2080       C  0.26377447  0.75882114  0.36532751    -0.11200
C2081       C  0.24992112  0.74721047  0.30491797    -0.15300
C2082       C  0.23353436  0.73966047  0.29159223    -0.29200
C2083       C  0.24995083  0.74161029  0.40178072    -0.03500
C2084       C  0.25962052  0.75607424  0.41591091    -0.40000
H2085       H  0.22695438  0.71648363  0.37300753     0.12800
H2086       H  0.22650464  0.71788560  0.33251504     0.12400
H2087       H  0.27373227  0.77186545  0.33352178     0.11800
H2088       H  0.27469001  0.77011579  0.37393432     0.12100
H2089       H  0.26428994  0.75528497  0.29757342     0.14800
H2090       H  0.21915130  0.73146357  0.29880286     0.13600
H2091       H  0.24062874  0.72777889  0.40880559     0.11300
H2092       H  0.26880844  0.77029126  0.40971374     0.13300
C2093       C  0.24438292  0.83442795  0.24360303     0.19400
C2094       C  0.26393344  0.84715585  0.24424945    -0.18700
C2095       C  0.26277960  0.87057198  0.24440819    -0.11000
C2096       C  0.24193454  0.88186081  0.24406499     0.21600
C2097       C  0.22236229  0.86914651  0.24389164    -0.20300
C2098       C  0.22351483  0.84570434  0.24357568    -0.11200
C2099       C  0.23999133  0.90675990  0.24460894    -0.15300
C2100       C  0.25587162  0.92035373  0.23649710    -0.29200
C2101       C  0.24653216  0.80954123  0.24410312    -0.03500
C2102       C  0.23055224  0.79562963  0.23693012    -0.40000
H2103       H  0.28021521  0.83893214  0.24467607     0.12800
H2104       H  0.27823987  0.87970983  0.24529236     0.12400
H2105       H  0.20608958  0.87739881  0.24396701     0.11800
H2106       H  0.20803930  0.83656177  0.24383225     0.12100
H2107       H  0.22449005  0.91410736  0.25088155     0.14800
H2108       H  0.27073580  0.91323595  0.22872628     0.13600
H2109       H  0.26241328  0.80255901  0.24975582     0.11300
H2110       H  0.21543523  0.80246849  0.22934095     0.13300
C2111       C  0.17633603  0.67406997  0.14650840     0.19400
C2112       C  0.16930491  0.67600796  0.16887255    -0.18700
C2113       C  0.18044069  0.69012672  0.18367813    -0.11000
C2114       C  0.19887375  0.70272769  0.17649183     0.21600
C2115       C  0.20533398  0.70130676  0.15400816    -0.20300
C2116       C  0.19422046  0.68721024  0.13923531    -0.11200
C2117       C  0.21165550  0.71776150  0.19156578    -0.15300
C2118       C  0.21086881  0.71699161  0.21404663    -0.29200
C2119       C  0.16513067  0.65915824  0.13011966    -0.03500
C2120       C  0.15299976  0.64118431  0.13602371    -0.40000
H2121       H  0.15497993  0.66700099  0.17499385     0.12800
H2122       H  0.17425485  0.69128073  0.20057272     0.12400
H2123       H  0.21924511  0.71098995  0.14785743     0.11800
H2124       H  0.19981340  0.68638444  0.12206303     0.12100
H2125       H  0.22299046  0.72956438  0.18381795     0.14800
H2126       H  0.20031067  0.70497923  0.22241278     0.13600
H2127       H  0.16790423  0.66256585  0.11258755     0.11300
H2128       H  0.15199836  0.63695764  0.15361706     0.13300
C2129       C  0.32596125  0.50612939  0.00415195     0.19400
C2130       C  0.34150265  0.49930881  0.02042431    -0.18700
C2131       C  0.36419718  0.49672631  0.01504809    -0.11000
C2132       C  0.37181879  0.50118068  0.99325451     0.21600
C2133       C  0.35633070  0.50860258  0.97716794    -0.20300
C2134       C  0.33364381  0.51097128  0.98248812    -0.11200
C2135       C  0.39588867  0.49964383  0.98706655    -0.15300
C2136       C  0.41082739  0.48634365  0.99773919    -0.29200
C2137       C  0.30181657  0.50779468  0.01000191    -0.03500
C2138       C  0.28598624  0.50212559  0.99530253    -0.40000
H2139       H  0.33601917  0.49571218  0.03727379     0.12800
H2140       H  0.37572370  0.49174732  0.02813137     0.12400
H2141       H  0.36180532  0.51255222  0.96039490     0.11800
H2142       H  0.32218318  0.51685923  0.96969001     0.12100
H2143       H  0.40145332  0.50979964  0.97308687     0.14800
H2144       H  0.40536665  0.47525146  0.01099440     0.13600
H2145       H  0.29712028  0.51169857  0.02706670     0.11300
H2146       H  0.29102124  0.49598019  0.97901695     0.13300
C2147       C  0.23946979  0.48893246  0.91301637     0.19400
C2148       C  0.25918331  0.48508918  0.90081260    -0.18700
C2149       C  0.25854844  0.48190935  0.87783135    -0.11000
C2150       C  0.23810142  0.48270951  0.86624135     0.21600
C2151       C  0.21820970  0.48575915  0.87845143    -0.20300
C2152       C  0.21883740  0.48892505  0.90165059    -0.11200
C2153       C  0.23740188  0.48041616  0.84150767    -0.15300
C2154       C  0.25440360  0.48744389  0.82863553    -0.29200
C2155       C  0.24166744  0.49171502  0.93755981    -0.03500
C2156       C  0.22534875  0.49840788  0.95168127    -0.40000
H2157       H  0.27528401  0.48447471  0.90911935     0.12800
H2158       H  0.27417368  0.47858383  0.86925856     0.12400
H2159       H  0.20220612  0.48605175  0.86997827     0.11800
H2160       H  0.20320848  0.49118657  0.91049913     0.12100
H2161       H  0.22246717  0.47381172  0.83378456     0.14800
H2162       H  0.26853294  0.49558515  0.83634953     0.13600
H2163       H  0.25827292  0.48852689  0.94424307     0.11300
H2164       H  0.20908296  0.50374256  0.94543609     0.13300
C2165       C  0.16735259  0.58705099  0.07344370     0.19400
C2166       C  0.16074363  0.56587690  0.06609566    -0.18700
C2167       C  0.17477578  0.55276678  0.05260103    -0.11000
C2168       C  0.19582279  0.56059337  0.04584724     0.21600
C2169       C  0.20230053  0.58200060  0.05276251    -0.20300
C2170       C  0.18832994  0.59504772  0.06659250    -0.11200
C2171       C  0.21067434  0.54711198  0.03080381    -0.15300
C2172       C  0.21115809  0.52453286  0.03117353    -0.29200
C2173       C  0.15154322  0.60018500  0.08776621    -0.03500
C2174       C  0.15775792  0.61555362  0.10293089    -0.40000
H2175       H  0.14460162  0.55937495  0.07089073     0.12800
H2176       H  0.16881965  0.53671638  0.04704258     0.12400
H2177       H  0.21825938  0.58859485  0.04753046     0.11800
H2178       H  0.19379379  0.61149011  0.07147577     0.12100
H2179       H  0.22166702  0.55589569  0.01940067     0.14800
H2180       H  0.20119385  0.51587124  0.04356643     0.13600
H2181       H  0.13401360  0.59560463  0.08723448     0.11300
H2182       H  0.17530064  0.61976129  0.10439651     0.13300
C2183       C  0.24832270  0.36102383  0.99713015     0.19400
C2184       C  0.24464163  0.37356066  0.01651396    -0.18700
C2185       C  0.24232569  0.39685278  0.01541749    -0.11000
C2186       C  0.24315605  0.40806344  0.99471360     0.21600
C2187       C  0.24655125  0.39539666  0.97529688    -0.20300
C2188       C  0.24906918  0.37213466  0.97643790    -0.11200
C2189       C  0.24139177  0.43283695  0.99247972    -0.15300
C2190       C  0.23493179  0.44679211  0.00892467    -0.29200
C2191       C  0.25066960  0.33637514  0.99904603    -0.03500
C2192       C  0.26291696  0.32390615  0.98479872    -0.40000
H2193       H  0.24393702  0.36531618  0.03263469     0.12800
H2194       H  0.24024292  0.40581724  0.03089055     0.12400
H2195       H  0.24724708  0.40353681  0.95912670     0.11800
H2196       H  0.25125348  0.36291560  0.96108731     0.12100
H2197       H  0.24517915  0.43969465  0.97616681     0.14800
H2198       H  0.22930293  0.44020478  0.02479810     0.13600
H2199       H  0.24271388  0.32834269  0.01323612     0.11300
H2200       H  0.27206200  0.33182101  0.97131806     0.13300
C2201       C  0.99156502  0.87441300  0.00650277     0.19400
C2202       C  0.00152903  0.86359636  0.02492790    -0.18700
C2203       C  0.00755112  0.84084055  0.02401954    -0.11000
C2204       C  0.00359887  0.82840934  0.00456966     0.21600
C2205       C  0.99320277  0.83918925  0.98636564    -0.20300
C2206       C  0.98711165  0.86180149  0.98732259    -0.11200
C2207       C  0.00895660  0.80409859  0.00241783    -0.15300
C2208       C  0.01814281  0.79079212  0.01830355    -0.29200
C2209       C  0.98667333  0.89891170  0.00754494    -0.03500
C2210       C  0.98627797  0.91198794  0.98919930    -0.40000
H2211       H  0.00502033  0.87289104  0.03996665     0.12800
H2212       H  0.01523949  0.83325086  0.03856140     0.12400
H2213       H  0.98955997  0.83000973  0.97129691     0.11800
H2214       H  0.97874331  0.86920642  0.97303627     0.12100
H2215       H  0.00473101  0.79666480  0.98652737     0.14800
H2216       H  0.02424369  0.79763546  0.03380652     0.13600
H2217       H  0.98580337  0.90672771  0.02385777     0.11300
H2218       H  0.98918899  0.90466138  0.97292461     0.13300
C2219       C  0.01238678  0.74171293  0.87252306     0.19400
C2220       C  0.99565101  0.74726315  0.88802781    -0.18700
C2221       C  0.99944639  0.74442823  0.91090547    -0.11000
C2222       C  0.02027619  0.73626154  0.91873231     0.21600
C2223       C  0.03703291  0.73091379  0.90323411    -0.20300
C2224       C  0.03328402  0.73383541  0.88042717    -0.11200
C2225       C  0.02505097  0.73267671  0.94280534    -0.15300
C2226       C  0.01469069  0.74442359  0.95893317    -0.29200
C2227       C  0.00766994  0.74438960  0.84829264    -0.03500
C2228       C  0.01851922  0.73218769  0.83281578    -0.40000
H2229       H  0.97944802  0.75339567  0.88240082     0.12800
H2230       H  0.98586977  0.74818243  0.92228132     0.12400
H2231       H  0.05323194  0.72471563  0.90882054     0.11800
H2232       H  0.04695670  0.73016812  0.86914645     0.12100
H2233       H  0.03798653  0.72047932  0.94714009     0.14800
H2234       H  0.00235343  0.75716536  0.95442890     0.13600
H2235       H  0.99456412  0.75611753  0.84314993     0.11300
H2236       H  0.03080945  0.71961924  0.83789286     0.13300
C2237       C  0.10705524  0.66818818  0.08116588     0.19400
C2238       C  0.11109478  0.67890569  0.06066948    -0.18700
C2239       C  0.09453367  0.69230266  0.05045352    -0.11000
C2240       C  0.07348839  0.69547186  0.06062943     0.21600
C2241       C  0.06959512  0.68515414  0.08133864    -0.20300
C2242       C  0.08609191  0.67161468  0.09147720    -0.11200
C2243       C  0.05560563  0.71005942  0.05058354    -0.15300
C2244       C  0.05342156  0.71349127  0.02845027    -0.29200
C2245       C  0.12549383  0.65473657  0.09182880    -0.03500
C2246       C  0.12212691  0.63867457  0.10736791    -0.40000
H2247       H  0.12718913  0.67695420  0.05253155     0.12800
H2248       H  0.09848345  0.70053805  0.03486017     0.12400
H2249       H  0.05369411  0.68759054  0.08973282     0.11800
H2250       H  0.08249714  0.66439289  0.10763606     0.12100
H2251       H  0.04322206  0.71751489  0.06168015     0.14800
H2252       H  0.06494181  0.70513740  0.01711262     0.13600
H2253       H  0.14239467  0.65775534  0.08611810     0.11300
H2254       H  0.10502084  0.63423631  0.11125131     0.13300
C2255       C  0.06959484  0.17424185  0.55097550     0.19400
C2256       C  0.06538603  0.15227529  0.55806883    -0.18700
C2257       C  0.07930224  0.14160115  0.57381154    -0.11000
C2258       C  0.09806720  0.15259827  0.58253070     0.21600
C2259       C  0.10234714  0.17448136  0.57522527    -0.20300
C2260       C  0.08843601  0.18513368  0.55956364    -0.11200
C2261       C  0.11347365  0.14216302  0.59935280    -0.15300
C2262       C  0.11556305  0.11985550  0.60272939    -0.29200
C2263       C  0.05432268  0.18527786  0.53443695    -0.03500
C2264       C  0.05117089  0.20762690  0.53358712    -0.40000
H2265       H  0.05103350  0.14348127  0.55170160     0.12800
H2266       H  0.07497634  0.12496155  0.57930864     0.12400
H2267       H  0.11670125  0.18334007  0.58150705     0.11800
H2268       H  0.09274308  0.20177740  0.55400079     0.12100
H2269       H  0.12414544  0.15341125  0.60850310     0.14800
H2270       H  0.10540233  0.10867187  0.59292912     0.13600
H2271       H  0.04490216  0.17480943  0.52316584     0.11300
H2272       H  0.05958825  0.21798779  0.54569182     0.13300
C2273       C  0.33762126  0.00499061  0.49965574     0.19400
C2274       C  0.35060214  0.00024512  0.51859615    -0.18700
C2275       C  0.37303172  0.99377397  0.51647153    -0.11000
C2276       C  0.38308774  0.99232309  0.49528279     0.21600
C2277       C  0.37003478  0.99661270  0.47629535    -0.20300
C2278       C  0.34756089  0.00310639  0.47841370    -0.11200
C2279       C  0.40738711  0.98764014  0.49267180    -0.15300
C2280       C  0.42210712  0.99521814  0.50760458    -0.29200
C2281       C  0.31377132  0.01152030  0.50276156    -0.03500
C2282       C  0.29813811  0.00751586  0.48730271    -0.40000
H2283       H  0.34330273  0.00134747  0.53510495     0.12800
H2284       H  0.38245799  0.98994544  0.53145326     0.12400
H2285       H  0.37744715  0.99568882  0.45982530     0.11800
H2286       H  0.33826008  0.00711194  0.46341234     0.12100
H2287       H  0.41337831  0.97995842  0.47735616     0.14800
H2288       H  0.41610657  0.00453802  0.52198421     0.13600
H2289       H  0.30866418  0.01771321  0.51901144     0.11300
H2290       H  0.30285638  0.99939684  0.47182855     0.13300
C2291       C  0.23946182  0.00119279  0.35867575     0.19400
C2292       C  0.22090922  0.00450151  0.37263943    -0.18700
C2293       C  0.22383981  0.00671706  0.39566499    -0.11000
C2294       C  0.24545867  0.00546692  0.40498670     0.21600
C2295       C  0.26384967  0.00144400  0.39097470    -0.20300
C2296       C  0.26092121  0.99928924  0.36809601    -0.11200
C2297       C  0.24978241  0.00687179  0.42921227    -0.15300
C2298       C  0.23496055  0.01418837  0.44447772    -0.29200
C2299       C  0.23639083  0.00000174  0.33428096    -0.03500
C2300       C  0.25139383  0.00913921  0.32047134    -0.40000
H2301       H  0.20420494  0.00570456  0.36568054     0.12800
H2302       H  0.20915682  0.00906483  0.40597243     0.12400
H2303       H  0.28061493  0.99993336  0.39775599     0.11800
H2304       H  0.27548068  0.99598646  0.35779940     0.12100
H2305       H  0.26646461  0.00192649  0.43461317     0.14800
H2306       H  0.21892243  0.02133842  0.43951878     0.13600
H2307       H  0.22125957  0.99265549  0.32768377     0.11300
H2308       H  0.26547191  0.01815092  0.32729335     0.13300
C2309       C  0.25402346  0.87447684  0.50754086     0.19400
C2310       C  0.26625068  0.88942152  0.49444255    -0.18700
C2311       C  0.26301471  0.91246850  0.49668898    -0.11000
C2312       C  0.24739220  0.92109811  0.51213459     0.21600
C2313       C  0.23605554  0.90624683  0.52612431    -0.20300
C2314       C  0.23926691  0.88312143  0.52385283    -0.11200
C2315       C  0.24311757  0.94554104  0.51398873    -0.15300
C2316       C  0.24420487  0.95880306  0.49592033    -0.29200
C2317       C  0.25739682  0.85008364  0.50392824    -0.03500
C2318       C  0.24189886  0.83499180  0.50938287    -0.40000
H2319       H  0.27811858  0.88324138  0.48218415     0.12800
H2320       H  0.27287320  0.92349668  0.48636291     0.12400
H2321       H  0.22441533  0.91253363  0.53853620     0.11800
H2322       H  0.23030032  0.87218402  0.53503082     0.12100
H2323       H  0.23949715  0.95261425  0.53025890     0.14800
H2324       H  0.24729535  0.95133409  0.47972442     0.13600
H2325       H  0.27282816  0.84445130  0.49599524     0.11300
H2326       H  0.22611668  0.84038714  0.51667128     0.13300
C2327       C  0.17073058  0.08310894  0.57213141     0.19400
C2328       C  0.18961543  0.09025411  0.56031704    -0.18700
C2329       C  0.20121227  0.07554388  0.54619317    -0.11000
C2330       C  0.19387672  0.05347011  0.54340170     0.21600
C2331       C  0.17458036  0.04656291  0.55459856    -0.20300
C2332       C  0.16315425  0.06115150  0.56890095    -0.11200
C2333       C  0.20530329  0.03765583  0.52807458    -0.15300
C2334       C  0.22754032  0.03752766  0.52470950    -0.29200
C2335       C  0.15865708  0.09914501  0.58687819    -0.03500
C2336       C  0.14660137  0.09245738  0.60464172    -0.40000
H2337       H  0.19548746  0.10721256  0.56214555     0.12800
H2338       H  0.21562302  0.08159113  0.53716549     0.12400
H2339       H  0.16836104  0.02978685  0.55230785     0.11800
H2340       H  0.14810482  0.05530899  0.57693667     0.12100
H2341       H  0.19519799  0.02530874  0.51965528     0.14800
H2342       H  0.23799561  0.04896541  0.53391704     0.13600
H2343       H  0.15964917  0.11689675  0.58303431     0.11300
H2344       H  0.14662856  0.07473299  0.60885248     0.13300
C2345       C  0.66892249  0.47794044  0.96979857     0.19400
C2346       C  0.65424415  0.47925611  0.95158228    -0.18700
C2347       C  0.63143039  0.48365401  0.95481839    -0.11000
C2348       C  0.62275136  0.48653955  0.97646549     0.21600
C2349       C  0.63740599  0.48531306  0.99467908    -0.20300
C2350       C  0.66020977  0.48083135  0.99145537    -0.11200
C2351       C  0.59852292  0.49063448  0.98055678    -0.15300
C2352       C  0.58274259  0.48198616  0.96737046    -0.29200
C2353       C  0.69310958  0.47342602  0.96560567    -0.03500
C2354       C  0.70919672  0.48014289  0.97961592    -0.40000
H2355       H  0.66050253  0.47714888  0.93475141     0.12800
H2356       H  0.62071475  0.48505380  0.94032443     0.12400
H2357       H  0.63110450  0.48737113  0.01150213     0.11800
H2358       H  0.67081217  0.47927904  0.00601203     0.12100
H2359       H  0.59355817  0.49957186  0.99555112     0.14800
H2360       H  0.58764948  0.47160450  0.95333039     0.13600
H2361       H  0.69774584  0.46565044  0.94991902     0.11300
H2362       H  0.70458457  0.48953839  0.99438184     0.13300
C2363       C  0.76809876  0.48515696  0.10984125     0.19400
C2364       C  0.76670915  0.46514157  0.09780787    -0.18700
C2365       C  0.76708023  0.46537572  0.07448107    -0.11000
C2366       C  0.76871807  0.48576647  0.06276689     0.21600
C2367       C  0.77032444  0.50571812  0.07484878    -0.20300
C2368       C  0.77003475  0.50547121  0.09810178    -0.11200
C2369       C  0.76680373  0.48736573  0.03815793    -0.15300
C2370       C  0.77001748  0.47016656  0.02409682    -0.29200
C2371       C  0.76571796  0.48451945  0.13444921    -0.03500
C2372       C  0.77380538  0.50044084  0.14786999    -0.40000
H2373       H  0.76490501  0.44931831  0.10648714     0.12800
H2374       H  0.76519234  0.44969407  0.06582028     0.12400
H2375       H  0.77128039  0.52167216  0.06623863     0.11800
H2376       H  0.77041426  0.52132085  0.10671850     0.12100
H2377       H  0.76275951  0.50377553  0.03140897     0.14800
H2378       H  0.77602974  0.45406928  0.03027261     0.13600
H2379       H  0.75711768  0.47035311  0.14176177     0.11300
H2380       H  0.78383916  0.51383809  0.14105957     0.13300
C2381       C  0.00946777  0.48128531  0.60921713     0.19400
C2382       C  0.99413397  0.46822033  0.62111298    -0.18700
C2383       C  0.99330331  0.46879426  0.64441832    -0.11000
C2384       C  0.00808599  0.48231706  0.65643144     0.21600
C2385       C  0.02358267  0.49519590  0.64452990    -0.20300
C2386       C  0.02439879  0.49463010  0.62123257    -0.11200
C2387       C  0.00757996  0.48417701  0.68118567    -0.15300
C2388       C  0.99778880  0.46932517  0.69497210    -0.29200
C2389       C  0.00936698  0.48024472  0.58441346    -0.03500
C2390       C  0.01846031  0.49580528  0.57093655    -0.40000
H2391       H  0.98245171  0.45776730  0.61230306     0.12800
H2392       H  0.98073112  0.45898844  0.65275302     0.12400
H2393       H  0.03521850  0.50571702  0.65332098     0.11800
H2394       H  0.03691107  0.50449229  0.61285853     0.12100
H2395       H  0.01602706  0.49845523  0.68804016     0.14800
H2396       H  0.98959900  0.45483918  0.68811897     0.13600
H2397       H  0.00057547  0.46638526  0.57690491     0.11300
H2398       H  0.02660767  0.51029005  0.57785462     0.13300
C2399       C  0.00205922  0.61163785  0.73807503     0.19400
C2400       C  0.98273645  0.59869821  0.73593430    -0.18700
C2401       C  0.98390351  0.57529528  0.73771773    -0.11000
C2402       C  0.00454728  0.56430702  0.74157011     0.21600
C2403       C  0.02391717  0.57719029  0.74314714    -0.20300
C2404       C  0.02275320  0.60052606  0.74144048    -0.11200
C2405       C  0.00694399  0.53949641  0.74266575    -0.15300
C2406       C  0.99029692  0.52545588  0.74800648    -0.29200
C2407       C  0.00003138  0.63653581  0.73638123    -0.03500
C2408       C  0.01535347  0.65051302  0.74475590    -0.40000
H2409       H  0.96662878  0.60674476  0.73298513     0.12800
H2410       H  0.96871189  0.56591561  0.73565829     0.12400
H2411       H  0.04010203  0.56914034  0.74563993     0.11800
H2412       H  0.03821411  0.60963274  0.74233683     0.12100
H2413       H  0.02360094  0.53262859  0.73975057     0.14800
H2414       H  0.97411191  0.53207585  0.75318914     0.13600
H2415       H  0.98488498  0.64359683  0.72895435     0.11300
H2416       H  0.02995384  0.64382160  0.75337982     0.13300
C2417       C  0.13548851  0.48848037  0.74285928     0.19400
C2418       C  0.12259130  0.48316206  0.76166908    -0.18700
C2419       C  0.09926428  0.48286633  0.76047883    -0.11000
C2420       C  0.08824102  0.48753190  0.74022509     0.21600
C2421       C  0.10111402  0.49332000  0.72149329    -0.20300
C2422       C  0.12450591  0.49370374  0.72271316    -0.11200
C2423       C  0.06345299  0.48686447  0.73801000    -0.15300
C2424       C  0.05011147  0.47535295  0.75198712    -0.29200
C2425       C  0.16023981  0.48710241  0.74489145    -0.03500
C2426       C  0.17483073  0.49688947  0.73086539    -0.40000
H2427       H  0.13062352  0.47918254  0.77742495     0.12800
H2428       H  0.09005626  0.47913961  0.77553207     0.12400
H2429       H  0.09305502  0.49713529  0.70571771     0.11800
H2430       H  0.13382730  0.49748940  0.70773803     0.12100
H2431       H  0.05633474  0.49540619  0.72367323     0.14800
H2432       H  0.05748533  0.46553691  0.76541846     0.13600
H2433       H  0.16676610  0.47770010  0.75910101     0.11300
H2434       H  0.16895541  0.50730336  0.71713442     0.13300
C2435       C  0.96243581  0.31014049  0.92429215     0.19400
C2436       C  0.95214524  0.30369454  0.90436794    -0.18700
C2437       C  0.93776612  0.31845044  0.89290865    -0.11000
C2438       C  0.93335875  0.34013661  0.90113998     0.21600
C2439       C  0.94447620  0.34691708  0.92052822    -0.20300
C2440       C  0.95879243  0.33209638  0.93205359    -0.11200
C2441       C  0.91741657  0.35606598  0.88995584    -0.15300
C2442       C  0.90051184  0.34927616  0.87683447    -0.29200
C2443       C  0.97714391  0.29368961  0.93623321    -0.03500
C2444       C  0.98026646  0.29384121  0.95847583    -0.40000
H2445       H  0.95504306  0.28705378  0.89776153     0.12800
H2446       H  0.93040621  0.31280363  0.87751043     0.12400
H2447       H  0.94177489  0.36363906  0.92700666     0.11800
H2448       H  0.96708324  0.33795054  0.94691420     0.12100
H2449       H  0.91891717  0.37382569  0.89338290     0.14800
H2450       H  0.89842817  0.33142363  0.87441152     0.13600
H2451       H  0.98472991  0.28020541  0.92660303     0.11300
H2452       H  0.97187767  0.30649872  0.96851057     0.13300
C2453       C  0.81473058  0.43102173  0.92658889     0.19400
C2454       C  0.83701819  0.42489711  0.93136584    -0.18700
C2455       C  0.84959593  0.41185038  0.91646339    -0.11000
C2456       C  0.84014361  0.40474161  0.89628191     0.21600
C2457       C  0.81788303  0.41094180  0.89145890    -0.20300
C2458       C  0.80525245  0.42385388  0.90643370    -0.11200
C2459       C  0.85313856  0.39184528  0.87935108    -0.15300
C2460       C  0.87127164  0.37882090  0.88397556    -0.29200
C2461       C  0.80251229  0.44590522  0.94244031    -0.03500
C2462       C  0.78003899  0.44792467  0.94367363    -0.40000
H2463       H  0.84482542  0.43042414  0.94663990     0.12800
H2464       H  0.86685733  0.40797790  0.92055064     0.12400
H2465       H  0.81026743  0.40590884  0.87591807     0.11800
H2466       H  0.78836816  0.42869613  0.90180080     0.12100
H2467       H  0.84688544  0.39225702  0.86233279     0.14800
H2468       H  0.87692064  0.37718612  0.90111209     0.13600
H2469       H  0.81251072  0.45536277  0.95413378     0.11300
H2470       H  0.76946411  0.43803867  0.93296879     0.13300
C2471       C  0.92542069  0.39798861  0.82697418     0.19400
C2472       C  0.94582044  0.39278456  0.81639537    -0.18700
C2473       C  0.95675629  0.40864990  0.80316333    -0.11000
C2474       C  0.94752161  0.43030834  0.80010830     0.21600
C2475       C  0.92722612  0.43557880  0.81088812    -0.20300
C2476       C  0.91628850  0.41969866  0.82413189    -0.11200
C2477       C  0.95882908  0.44813567  0.78672166    -0.15300
C2478       C  0.97522097  0.44403922  0.77167588    -0.29200
C2479       C  0.91519210  0.38084400  0.84196990    -0.03500
C2480       C  0.89365429  0.38145375  0.84901112    -0.40000
H2481       H  0.95351094  0.37637500  0.81857861     0.12800
H2482       H  0.97267417  0.40390218  0.79591467     0.12400
H2483       H  0.91983170  0.45217506  0.80918808     0.11800
H2484       H  0.90104416  0.42478760  0.83252335     0.12100
H2485       H  0.95295694  0.46515071  0.78931124     0.14800
H2486       H  0.98043266  0.42688039  0.76854153     0.13600
H2487       H  0.92603339  0.36704808  0.84714030     0.11300
H2488       H  0.88249744  0.39422369  0.84216470     0.13300
C2489       C  0.81562838  0.30066791  0.80524709     0.19400
C2490       C  0.82623476  0.29596641  0.82561867    -0.18700
C2491       C  0.84070263  0.31147142  0.83515182    -0.11000
C2492       C  0.84450322  0.33227344  0.82466896     0.21600
C2493       C  0.83348232  0.33712286  0.80454190    -0.20300
C2494       C  0.81908389  0.32161629  0.79500803    -0.11200
C2495       C  0.86060497  0.34876450  0.83364581    -0.15300
C2496       C  0.86573150  0.34993772  0.85548926    -0.29200
C2497       C  0.80123231  0.28349966  0.79480964    -0.03500
C2498       C  0.80007134  0.28133228  0.77255030    -0.40000
H2499       H  0.82383969  0.27998849  0.83383690     0.12800
H2500       H  0.84933889  0.30676356  0.85034928     0.12400
H2501       H  0.83603787  0.35298381  0.79614209     0.11800
H2502       H  0.81063489  0.32611009  0.77962774     0.12100
H2503       H  0.86819025  0.36023040  0.82186422     0.14800
H2504       H  0.85709116  0.33902295  0.86709214     0.13600
H2505       H  0.79213863  0.27200524  0.80544823     0.11300
H2506       H  0.81036857  0.29204525  0.76221350     0.13300
C2507       C  0.76538450  0.56495594  0.98818208     0.19400
C2508       C  0.76985453  0.57620133  0.00813399    -0.18700
C2509       C  0.76856982  0.59954015  0.00913357    -0.11000
C2510       C  0.76260792  0.61217642  0.99013054     0.21600
C2511       C  0.75818916  0.60094019  0.97013764    -0.20300
C2512       C  0.75964141  0.57756556  0.96909629    -0.11200
C2513       C  0.75935417  0.63685951  0.99094724    -0.15300
C2514       C  0.76940117  0.65002845  0.00596349    -0.29200
C2515       C  0.76489317  0.54013773  0.98857963    -0.03500
C2516       C  0.76746274  0.52713628  0.97048809    -0.40000
H2517       H  0.77395848  0.56684512  0.02315400     0.12800
H2518       H  0.77142636  0.60748016  0.02502195     0.12400
H2519       H  0.75327358  0.61027471  0.95534762     0.11800
H2520       H  0.75543748  0.56946560  0.95359688     0.12100
H2521       H  0.74857492  0.64452771  0.97836407     0.14800
H2522       H  0.78144242  0.64297207  0.01768319     0.13600
H2523       H  0.76268782  0.53231063  0.00475125     0.11300
H2524       H  0.77181559  0.53453127  0.95451994     0.13300
C2525       C  0.58622271  0.74144101  0.02411180     0.19400
C2526       C  0.59915516  0.72208062  0.02826376    -0.18700
C2527       C  0.62241611  0.72332226  0.03023821    -0.11000
C2528       C  0.63313004  0.74406415  0.02833636     0.21600
C2529       C  0.62004501  0.76358724  0.02576131    -0.20300
C2530       C  0.59681267  0.76232350  0.02355948    -0.11200
C2531       C  0.65787519  0.74578548  0.02811146    -0.15300
C2532       C  0.67102639  0.72989625  0.01887908    -0.29200
C2533       C  0.56182133  0.73932557  0.02025121    -0.03500
C2534       C  0.55047763  0.75320377  0.00642702    -0.40000
H2535       H  0.59131415  0.70587053  0.02926320     0.12800
H2536       H  0.63198120  0.70803108  0.03303235     0.12400
H2537       H  0.62788857  0.77978766  0.02467757     0.11800
H2538       H  0.58722442  0.77768475  0.02131374     0.12100
H2539       H  0.66522044  0.76137261  0.03353723     0.14800
H2540       H  0.66355620  0.71502759  0.01190208     0.13600
H2541       H  0.55358702  0.72519920  0.02789809     0.11300
H2542       H  0.55944434  0.76631762  0.99775072     0.13300
C2543       C  0.93044350  0.73575832  0.00555537     0.19400
C2544       C  0.91705756  0.74086594  0.98689560    -0.18700
C2545       C  0.89372556  0.74089067  0.98837946    -0.11000
C2546       C  0.88314938  0.73593331  0.00872106     0.21600
C2547       C  0.89649430  0.73066899  0.02736966    -0.20300
C2548       C  0.91987799  0.73070850  0.02590640    -0.11200
C2549       C  0.85838162  0.73502899  0.01095730    -0.15300
C2550       C  0.84378133  0.74499000  0.99673261    -0.29200
C2551       C  0.95516731  0.73700705  0.00300068    -0.03500
C2552       C  0.97041297  0.73029018  0.01832221    -0.40000
H2553       H  0.92469810  0.74483504  0.97099428     0.12800
H2554       H  0.88416571  0.74438878  0.97343092     0.12400
H2555       H  0.88877970  0.72666691  0.04322141     0.11800
H2556       H  0.92942549  0.72706863  0.04081846     0.12100
H2557       H  0.85190225  0.72582064  0.02518451     0.14800
H2558       H  0.84968869  0.75514799  0.98296033     0.13600
H2559       H  0.96104795  0.74371785  0.98724765     0.11300
H2560       H  0.96533327  0.72162619  0.03337632     0.13300
C2561       C  0.76677714  0.75419675  0.17704490     0.19400
C2562       C  0.76574465  0.73430486  0.16477474    -0.18700
C2563       C  0.76308724  0.73484226  0.14169225    -0.11000
C2564       C  0.76150756  0.75538640  0.13022199     0.21600
C2565       C  0.76230157  0.77534206  0.14241560    -0.20300
C2566       C  0.76500374  0.77481825  0.16562424    -0.11200
C2567       C  0.75840019  0.75628069  0.10567514    -0.15300
C2568       C  0.76699165  0.74039073  0.09223886    -0.29200
C2569       C  0.76774580  0.75226382  0.20172456    -0.03500
C2570       C  0.77096548  0.76927710  0.21592392    -0.40000
H2571       H  0.76661932  0.71818610  0.17313778     0.12800
H2572       H  0.76174532  0.71911030  0.13297332     0.12400
H2573       H  0.76082533  0.79136709  0.13395200     0.11800
H2574       H  0.76511511  0.79053916  0.17444494     0.12100
H2575       H  0.74961711  0.77064851  0.09848009     0.14800
H2576       H  0.77722069  0.72692471  0.09924177     0.13600
H2577       H  0.76533358  0.73564443  0.20853664     0.11300
H2578       H  0.77541834  0.78573320  0.20984097     0.13300
C2579       C  0.50098418  0.36217021  0.00039107     0.19400
C2580       C  0.50874588  0.35124770  0.01974725    -0.18700
C2581       C  0.51327629  0.32815709  0.01974835    -0.11000
C2582       C  0.50997545  0.31550227  0.00030062     0.21600
C2583       C  0.50146662  0.32639314  0.98122115    -0.20300
C2584       C  0.49698659  0.34939371  0.98122982    -0.11200
C2585       C  0.51432391  0.29092560  0.99904199    -0.15300
C2586       C  0.52510448  0.27848247  0.01463273    -0.29200
C2587       C  0.49725246  0.38683962  0.00060349    -0.03500
C2588       C  0.49971101  0.39959428  0.98221378    -0.40000
H2589       H  0.51163553  0.36067776  0.03482849     0.12800
H2590       H  0.51916412  0.32044937  0.03503231     0.12400
H2591       H  0.49830593  0.31706127  0.96613151     0.11800
H2592       H  0.49021874  0.35704598  0.96624204     0.12100
H2593       H  0.50877216  0.28293503  0.98390900     0.14800
H2594       H  0.53242929  0.28636980  0.02905987     0.13600
H2595       H  0.49402006  0.39485699  0.01653083     0.11300
H2596       H  0.50472540  0.39189884  0.96659762     0.13300
C2597       C  0.39244168  0.22489305  0.99924816     0.19400
C2598       C  0.40426052  0.21745633  0.01819696    -0.18700
C2599       C  0.42768696  0.21650107  0.01824220    -0.11000
C2600       C  0.43980089  0.22277054  0.99911532     0.21600
C2601       C  0.42789133  0.22985937  0.98008493    -0.20300
C2602       C  0.40453788  0.23089207  0.98008319    -0.11200
C2603       C  0.46468897  0.22294465  0.99806588    -0.15300
C2604       C  0.47870987  0.21787084  0.01502907    -0.29200
C2605       C  0.36757588  0.22525442  0.99981027    -0.03500
C2606       C  0.35466731  0.23783904  0.98603124    -0.40000
H2607       H  0.39532224  0.21251063  0.03310757     0.12800
H2608       H  0.43600393  0.21090163  0.03329132     0.12400
H2609       H  0.43671245  0.23469804  0.96506403     0.11800
H2610       H  0.39612531  0.23599947  0.96488946     0.12100
H2611       H  0.47181741  0.22792473  0.98219303     0.14800
H2612       H  0.47249742  0.21133928  0.03068570     0.13600
H2613       H  0.35959418  0.21503183  0.01247646     0.11300
H2614       H  0.36218521  0.24911393  0.97404492     0.13300
C2615       C  0.61055659  0.16161809  0.09155911     0.19400
C2616       C  0.61518769  0.16905366  0.06985047    -0.18700
C2617       C  0.59973402  0.18248523  0.05818006    -0.11000
C2618       C  0.57915201  0.18879060  0.06799887     0.21600
C2619       C  0.57491313  0.18210540  0.09003029    -0.20300
C2620       C  0.59038798  0.16870041  0.10171535    -0.11200
C2621       C  0.56191680  0.20247777  0.05589973    -0.15300
C2622       C  0.56049950  0.20300739  0.03352985    -0.29200
C2623       C  0.62751044  0.14736838  0.10339632    -0.03500
C2624       C  0.62243709  0.13410080  0.12086993    -0.40000
H2625       H  0.63080731  0.16436435  0.06183016     0.12800
H2626       H  0.60419256  0.18807562  0.04161117     0.12400
H2627       H  0.55946126  0.18710961  0.09818303     0.11800
H2628       H  0.58655136  0.16428594  0.11878726     0.12100
H2629       H  0.54944644  0.21161120  0.06558267     0.14800
H2630       H  0.57218592  0.19304523  0.02376118     0.13600
H2631       H  0.64475724  0.14782374  0.09767803     0.11300
H2632       H  0.60504598  0.13274736  0.12581432     0.13300
C2633       C  0.38510605  0.46942847  0.72931095     0.19400
C2634       C  0.39662705  0.47445330  0.70957051    -0.18700
C2635       C  0.41990266  0.47664438  0.70965800    -0.11000
C2636       C  0.43209011  0.47363940  0.72956463     0.21600
C2637       C  0.42057867  0.46777636  0.74910047    -0.20300
C2638       C  0.39733792  0.46575738  0.74903676    -0.11200
C2639       C  0.45678720  0.47577144  0.73069305    -0.15300
C2640       C  0.46894014  0.48767906  0.71603561    -0.29200
C2641       C  0.36035643  0.46831557  0.72891654    -0.03500
C2642       C  0.34777059  0.47500830  0.74628341    -0.40000
H2643       H  0.38754728  0.47704062  0.69411378     0.12800
H2644       H  0.42821024  0.48038133  0.69408549     0.12400
H2645       H  0.42959223  0.46497404  0.76456525     0.11800
H2646       H  0.38901431  0.46118262  0.76439502     0.12100
H2647       H  0.46486967  0.46799109  0.74494802     0.14800
H2648       H  0.46060502  0.49665972  0.70256297     0.13600
H2649       H  0.35227396  0.46389604  0.71334634     0.11300
H2650       H  0.35572439  0.48143904  0.76116406     0.13300
C2651       C  0.50211029  0.48768157  0.85626135     0.19400
C2652       C  0.52264533  0.48680885  0.84486846    -0.18700
C2653       C  0.52346147  0.48844866  0.82160728    -0.11000
C2654       C  0.50364347  0.49076005  0.80913144     0.21600
C2655       C  0.48306048  0.49146482  0.82048634    -0.20300
C2656       C  0.48226046  0.49010649  0.84382009    -0.11200
C2657       C  0.50378127  0.49064910  0.78431791    -0.15300
C2658       C  0.52118759  0.49747682  0.77182538    -0.29200
C2659       C  0.50218339  0.48480106  0.88093293    -0.03500
C2660       C  0.48604976  0.49271800  0.89466082    -0.40000
H2661       H  0.53816760  0.48466953  0.85402234     0.12800
H2662       H  0.53958073  0.48712994  0.81345354     0.12400
H2663       H  0.46752715  0.49285667  0.81124438     0.11800
H2664       H  0.46609758  0.49026125  0.85195295     0.12100
H2665       H  0.48869992  0.48510212  0.77606787     0.14800
H2666       H  0.53545802  0.50521046  0.77969608     0.13600
H2667       H  0.51689304  0.47671066  0.88822431     0.20900
H2668       H  0.47194650  0.50225122  0.88798173     0.13300
C2669       C  0.60113207  0.56872740  0.65057949     0.19400
C2670       C  0.58168514  0.55813007  0.64318083    -0.18700
C2671       C  0.56966212  0.54399462  0.65733951    -0.11000
C2672       C  0.57688671  0.53994577  0.67934444     0.21600
C2673       C  0.59660930  0.55012327  0.68663459    -0.20300
C2674       C  0.60856240  0.56445235  0.67250491    -0.11200
C2675       C  0.56478795  0.52449518  0.69467774    -0.15300
C2676       C  0.54261519  0.52083679  0.69330504    -0.29200
C2677       C  0.61328072  0.58348738  0.63460353    -0.03500
C2678       C  0.62792632  0.59945959  0.64047034    -0.40000
H2679       H  0.57571254  0.56082410  0.62630822     0.12800
H2680       H  0.55500399  0.53590210  0.65079260     0.12400
H2681       H  0.60276595  0.54701655  0.70337512     0.11800
H2682       H  0.62377903  0.57172486  0.67872666     0.12100
H2683       H  0.57427858  0.51631454  0.70795082     0.14800
H2684       H  0.53274198  0.52987965  0.68091933     0.13600
H2685       H  0.60919068  0.58189444  0.61702282     0.11300
H2686       H  0.63182266  0.60186358  0.65795433     0.13300
C2687       C  0.50722812  0.24063208  0.57704424     0.19400
C2688       C  0.50921187  0.22009151  0.58842891    -0.18700
C2689       C  0.51164732  0.21940110  0.61161390    -0.11000
C2690       C  0.51227916  0.23934399  0.62393963     0.21600
C2691       C  0.51070338  0.25989003  0.61254296    -0.20300
C2692       C  0.50814923  0.26058656  0.58936392    -0.11200
C2693       C  0.51521966  0.23940880  0.64854031    -0.15300
C2694       C  0.50854870  0.22261311  0.66191464    -0.29200
C2695       C  0.50554411  0.24046395  0.55230017    -0.03500
C2696       C  0.49748897  0.25775105  0.54004319    -0.40000
H2697       H  0.50896234  0.20448361  0.57932405     0.12800
H2698       H  0.51351684  0.20325374  0.61971071     0.12400
H2699       H  0.51146461  0.27548737  0.62162178     0.11800
H2700       H  0.50748257  0.27677214  0.58121623     0.12100
H2701       H  0.52184765  0.25445603  0.65602564     0.14800
H2702       H  0.50029214  0.20820325  0.65491383     0.13600
H2703       H  0.51063408  0.22511212  0.54410217     0.11300
H2704       H  0.49065341  0.27245202  0.54828933     0.13300
C2705       C  0.68362467  0.24086613  0.74684965     0.19400
C2706       C  0.67151093  0.22092532  0.74739149    -0.18700
C2707       C  0.64817308  0.22132221  0.74575645    -0.11000
C2708       C  0.63636798  0.24175550  0.74335869     0.21600
C2709       C  0.64848786  0.26169126  0.74238653    -0.20300
C2710       C  0.67186916  0.26131301  0.74423225    -0.11200
C2711       C  0.61154841  0.24268206  0.74119191    -0.15300
C2712       C  0.59822768  0.22751225  0.75092477    -0.29200
C2713       C  0.70848342  0.23941089  0.74750595    -0.03500
C2714       C  0.72172547  0.25620823  0.75401892    -0.40000
H2715       H  0.68016413  0.20492609  0.74896996     0.12800
H2716       H  0.63950278  0.20555236  0.74584233     0.12400
H2717       H  0.63982260  0.27761528  0.74023105     0.11800
H2718       H  0.68065141  0.27697407  0.74300535     0.12100
H2719       H  0.60400852  0.25683001  0.73236802     0.14800
H2720       H  0.60555807  0.21435908  0.76126670     0.13600
H2721       H  0.71600406  0.22345534  0.74302345     0.11300
H2722       H  0.71430204  0.27154727  0.76046824     0.13300
C2723       C  0.51779173  0.40145532  0.72519095     0.19400
C2724       C  0.49859279  0.38851805  0.72824623    -0.18700
C2725       C  0.50011499  0.36520289  0.72970808    -0.11000
C2726       C  0.52100413  0.35413592  0.72832812     0.21600
C2727       C  0.54021048  0.36695164  0.72479301    -0.20300
C2728       C  0.53870788  0.39038180  0.72341584    -0.11200
C2729       C  0.52309171  0.32929538  0.72999220    -0.15300
C2730       C  0.50857850  0.31680878  0.74171989    -0.29200
C2731       C  0.51496659  0.42630297  0.72482708    -0.03500
C2732       C  0.53087442  0.44098992  0.71896572    -0.40000
H2733       H  0.48224215  0.39650092  0.72954689     0.12800
H2734       H  0.48482160  0.35592708  0.73163308     0.12400
H2735       H  0.55648742  0.35882583  0.72350155     0.11800
H2736       H  0.55399493  0.39959598  0.72135453     0.12100
H2737       H  0.53728527  0.32116652  0.72188921     0.14800
H2738       H  0.49519574  0.32492493  0.75104614     0.13600
H2739       H  0.49845305  0.43273133  0.72912154     0.11300
H2740       H  0.54694902  0.43512046  0.71277339     0.13300
C2741       C  0.51884533  0.23535209  0.92036711     0.19400
C2742       C  0.49934710  0.23865534  0.90770051    -0.18700
C2743       C  0.50001642  0.23715416  0.88446296    -0.11000
C2744       C  0.52036513  0.23262737  0.87341430     0.21600
C2745       C  0.53991832  0.22968904  0.88606874    -0.20300
C2746       C  0.53925599  0.23123622  0.90928281    -0.11200
C2747       C  0.52170497  0.22993218  0.84888155    -0.15300
C2748       C  0.50698558  0.23947395  0.83464874    -0.29200
C2749       C  0.51733210  0.23644770  0.94503063    -0.03500
C2750       C  0.53161393  0.22518928  0.95847087    -0.40000
H2751       H  0.48344549  0.24190880  0.91585235     0.12800
H2752       H  0.48447845  0.23896042  0.87534081     0.12400
H2753       H  0.55579541  0.22627616  0.87794579     0.11800
H2754       H  0.55479280  0.22939310  0.91840082     0.12100
H2755       H  0.53569311  0.22017293  0.84228863     0.14800
H2756       H  0.49368444  0.25038050  0.84079265     0.13600
H2757       H  0.50350544  0.24601942  0.95198983     0.11300
H2758       H  0.54460225  0.21466309  0.95116267     0.13300
C2759       C  0.49582667  0.10327388  0.75739596     0.19400
C2760       C  0.47582225  0.09130274  0.75882595    -0.18700
C2761       C  0.47620034  0.06794602  0.76129426    -0.11000
C2762       C  0.49670482  0.05605990  0.76214866     0.21600
C2763       C  0.51667866  0.06808405  0.76076629    -0.20300
C2764       C  0.51629596  0.09138007  0.75846324    -0.11200
C2765       C  0.49819449  0.03117546  0.76203493    -0.15300
C2766       C  0.48143061  0.01728541  0.76739053    -0.29200
C2767       C  0.49487501  0.12792785  0.75360719    -0.03500
C2768       C  0.51106135  0.14169663  0.76052233    -0.40000
H2769       H  0.45983541  0.10004532  0.75778349     0.12800
H2770       H  0.46043863  0.05929284  0.76166828     0.12400
H2771       H  0.53270354  0.05935446  0.76097677     0.11800
H2772       H  0.53205882  0.09989187  0.75674504     0.12100
H2773       H  0.51413188  0.02398008  0.75696578     0.14800
H2774       H  0.46598556  0.02380847  0.77451933     0.13600
H2775       H  0.48007558  0.13501905  0.74555977     0.11300
H2776       H  0.52505856  0.13500690  0.77011344     0.13300
C2777       C  0.25023553  0.22906803  0.86413228     0.19400
C2778       C  0.24406133  0.21051153  0.85141438    -0.18700
C2779       C  0.24383686  0.21167040  0.82808596    -0.11000
C2780       C  0.24939765  0.23166713  0.81696137     0.21600
C2781       C  0.25509474  0.25035298  0.82975535    -0.20300
C2782       C  0.25542189  0.24914927  0.85304518    -0.11200
C2783       C  0.25056876  0.23354751  0.79220151    -0.15300
C2784       C  0.24086351  0.21921475  0.77803666    -0.29200
C2785       C  0.25079122  0.22705655  0.88887075    -0.03500
C2786       C  0.26445211  0.23925144  0.90169517    -0.40000
H2787       H  0.23989518  0.19488507  0.85955547     0.12800
H2788       H  0.23983828  0.19669508  0.81897631     0.12400
H2789       H  0.25938245  0.26598366  0.82168512     0.11800
H2790       H  0.25955266  0.26403442  0.86226924     0.12100
H2791       H  0.25938150  0.24782230  0.78551267     0.14800
H2792       H  0.23037529  0.20600160  0.78445234     0.13600
H2793       H  0.24023629  0.21459217  0.89665970     0.11300
H2794       H  0.27596381  0.25085184  0.89399247     0.13300
C2795       C  0.16554862  0.14215269  0.66415697     0.19400
C2796       C  0.17514580  0.16117012  0.65424707    -0.18700
C2797       C  0.19065203  0.17396835  0.66610071    -0.11000
C2798       C  0.19693220  0.16784325  0.68796583     0.21600
C2799       C  0.18732433  0.14888277  0.69769397    -0.20300
C2800       C  0.17163521  0.13639816  0.68607111    -0.11200
C2801       C  0.21389411  0.18016340  0.70104516    -0.15300
C2802       C  0.21743335  0.20231711  0.69922063    -0.29200
C2803       C  0.14888071  0.12794649  0.65270237    -0.03500
C2804       C  0.14786689  0.12495799  0.63036348    -0.40000
H2805       H  0.17053294  0.16635700  0.63753473     0.12800
H2806       H  0.19798080  0.18833435  0.65799863     0.12400
H2807       H  0.19187356  0.14377386  0.71447504     0.11800
H2808       H  0.16446041  0.12191209  0.69415471     0.12100
H2809       H  0.22290361  0.17084053  0.71391775     0.14800
H2810       H  0.20788664  0.21227239  0.68726168     0.13600
H2811       H  0.13794183  0.11854725  0.66358805     0.11300
H2812       H  0.15916542  0.13434730  0.61980905     0.13300
C2813       C  0.25397019  0.36033120  0.72508927     0.19400
C2814       C  0.27130044  0.34499417  0.72028581    -0.18700
C2815       C  0.26683372  0.32225056  0.71767012    -0.11000
C2816       C  0.24482023  0.31441884  0.71954046     0.21600
C2817       C  0.22736235  0.32987073  0.72341080    -0.20300
C2818       C  0.23186445  0.35259327  0.72631683    -0.11200
C2819       C  0.23968464  0.29025803  0.71761086    -0.15300
C2820       C  0.25380219  0.27428936  0.72533621    -0.29200
C2821       C  0.25938404  0.38437681  0.72762413    -0.03500
C2822       C  0.24709399  0.39867357  0.74007980    -0.40000
H2823       H  0.28838858  0.35060223  0.71877673     0.12800
H2824       H  0.28059717  0.31086384  0.71399030     0.12400
H2825       H  0.21023601  0.32427989  0.72456958     0.11800
H2826       H  0.21797906  0.36406322  0.72915169     0.12100
H2827       H  0.22331707  0.28568248  0.71141806     0.14800
H2828       H  0.26920188  0.27916454  0.73345809     0.13600
H2829       H  0.27425327  0.39039438  0.71919877     0.11300
H2830       H  0.23286509  0.39264514  0.74949935     0.13300
C2831       C  0.38442928  0.22029294  0.73381297     0.19400
C2832       C  0.37124919  0.20140542  0.73008034    -0.18700
C2833       C  0.34785333  0.20334405  0.72895175    -0.11000
C2834       C  0.33715851  0.22439502  0.73119713     0.21600
C2835       C  0.35043327  0.24328950  0.73450881    -0.20300
C2836       C  0.37373038  0.24133666  0.73570236    -0.11200
C2837       C  0.31236560  0.22760433  0.73110169    -0.15300
C2838       C  0.29746617  0.21222910  0.72457335    -0.29200
C2839       C  0.40924610  0.21765912  0.73503336    -0.03500
C2840       C  0.42233201  0.23194154  0.74622814    -0.40000
H2841       H  0.37907125  0.18501950  0.72840214     0.12800
H2842       H  0.33835630  0.18827272  0.72672363     0.12400
H2843       H  0.34273195  0.25973694  0.73618596     0.11800
H2844       H  0.38325506  0.25642902  0.73779050     0.12100
H2845       H  0.30619301  0.24398921  0.73613137     0.14800
H2846       H  0.30313928  0.19641315  0.71761870     0.13600
H2847       H  0.41689632  0.20324204  0.72689017     0.11300
H2848       H  0.41478934  0.24568391  0.75547400     0.13300
C2849       C  0.99868847  0.00212894  0.86659142     0.19400
C2850       C  0.01864684  0.99999557  0.85436466    -0.18700
C2851       C  0.01842906  0.00079286  0.83104342    -0.11000
C2852       C  0.99811033  0.00350940  0.81943269     0.21600
C2853       C  0.97814381  0.00554770  0.83167515    -0.20300
C2854       C  0.97839430  0.00500486  0.85500647    -0.11200
C2855       C  0.99688608  0.00270569  0.79468889    -0.15300
C2856       C  0.01398608  0.00792905  0.78107995    -0.29200
C2857       C  0.99953646  0.99967668  0.89124017    -0.03500
C2858       C  0.98445311  0.00900832  0.90523899    -0.40000
H2859       H  0.03446259  0.99744520  0.86290189     0.12800
H2860       H  0.03408261  0.99849320  0.82222829     0.12400
H2861       H  0.96223977  0.00732644  0.82313252     0.11800
H2862       H  0.96263020  0.00607349  0.86385348     0.12100
H2863       H  0.98090009  0.99833026  0.78744248     0.14800
H2864       H  0.02932115  0.01453709  0.78792980     0.13600
H2865       H  0.01366913  0.99032939  0.89818805     0.11300
H2866       H  0.97118190  0.01985855  0.89883419     0.13300
C2867       C  0.91956754  0.99100422  0.73760096     0.19400
C2868       C  0.90724849  0.98054083  0.75449872    -0.18700
C2869       C  0.88386299  0.98176728  0.75455242    -0.11000
C2870       C  0.87229082  0.99325059  0.73739968     0.21600
C2871       C  0.88464139  0.00344766  0.72035861    -0.20300
C2872       C  0.90798264  0.00221602  0.72030862    -0.11200
C2873       C  0.84750311  0.99549504  0.73678499    -0.15300
C2874       C  0.83360054  0.98220963  0.74827508    -0.29200
C2875       C  0.94439074  0.98968974  0.73839333    -0.03500
C2876       C  0.95737831  0.00515625  0.72875571    -0.40000
H2877       H  0.91577340  0.97174943  0.76795587     0.12800
H2878       H  0.87510180  0.97409575  0.76831326     0.12400
H2879       H  0.87617850  0.01227942  0.70689021     0.11800
H2880       H  0.91676985  0.00979781  0.70650468     0.12100
H2881       H  0.84038424  0.00829672  0.72582592     0.14800
H2882       H  0.84012414  0.96868763  0.75863292     0.13600
H2883       H  0.95194151  0.97586095  0.74760368     0.11300
H2884       H  0.94968497  0.01925374  0.72005154     0.13300
C2885       C  0.00927558  0.86503972  0.73959895     0.19400
C2886       C  0.02655767  0.87807523  0.73077609    -0.18700
C2887       C  0.02491816  0.90148276  0.73062370    -0.11000
C2888       C  0.00566670  0.91243799  0.73900678     0.21600
C2889       C  0.98840329  0.89935705  0.74784119    -0.20300
C2890       C  0.99009138  0.87596847  0.74807201    -0.11200
C2891       C  0.00297067  0.93730881  0.73945284    -0.15300
C2892       C  0.01553464  0.95163560  0.72751184    -0.29200
C2893       C  0.01153484  0.84018667  0.73880514    -0.03500
C2894       C  0.00014694  0.82609923  0.75214409    -0.40000
H2895       H  0.04151587  0.87010080  0.72411627     0.12800
H2896       H  0.03891634  0.91075041  0.72418449     0.12400
H2897       H  0.97338105  0.90727495  0.75442517     0.11800
H2898       H  0.97612189  0.86659832  0.75447183     0.12100
H2899       H  0.98947604  0.94378568  0.74969742     0.14800
H2900       H  0.02823504  0.94516600  0.71626104     0.13600
H2901       H  0.02351167  0.83323127  0.72698380     0.11300
H2902       H  0.98896061  0.83261882  0.76487832     0.13300
C2903       C  0.06540453  0.04769852  0.68500956     0.19400
C2904       C  0.08701493  0.04249248  0.67727860    -0.18700
C2905       C  0.09788660  0.05679150  0.66233406    -0.11000
C2906       C  0.08744382  0.07687490  0.65509342     0.21600
C2907       C  0.06594577  0.08214891  0.66302582    -0.20300
C2908       C  0.05511896  0.06790055  0.67795089    -0.11200
C2909       C  0.09799174  0.09235260  0.63877113    -0.15300
C2910       C  0.12031787  0.09346318  0.63574453    -0.29200
C2911       C  0.05406166  0.03192996  0.70050767    -0.03500
C2912       C  0.03164810  0.03062478  0.70170297    -0.40000
H2913       H  0.09532823  0.02708298  0.68246399     0.12800
H2914       H  0.11418288  0.05173405  0.65615684     0.12400
H2915       H  0.05753800  0.09750035  0.65779322     0.11800
H2916       H  0.03881281  0.07298685  0.68410818     0.12100
H2917       H  0.08689459  0.10356957  0.62954390     0.14800
H2918       H  0.13117503  0.08315101  0.64623467     0.13600
H2919       H  0.06428463  0.02065577  0.71066595     0.11300
H2920       H  0.02143760  0.04097130  0.69065836     0.13300
C2921       C  0.75129135  0.86336714  0.75145922     0.19400
C2922       C  0.74341255  0.85219441  0.73245080    -0.18700
C2923       C  0.74284906  0.82878170  0.73193060    -0.11000
C2924       C  0.75020919  0.81602169  0.75041011     0.21600
C2925       C  0.75812322  0.82726834  0.76926881    -0.20300
C2926       C  0.75874279  0.85060445  0.76974984    -0.11200
C2927       C  0.75057933  0.79110737  0.75090007    -0.15300
C2928       C  0.74303076  0.77776169  0.73458776    -0.29200
C2929       C  0.75277518  0.88815643  0.75268647    -0.03500
C2930       C  0.74073534  0.90229851  0.73974363    -0.40000
H2931       H  0.73817169  0.86134222  0.71770304     0.12800
H2932       H  0.73693557  0.82097462  0.71689408     0.12400
H2933       H  0.76401457  0.81794769  0.78372406     0.11800
H2934       H  0.76504516  0.85872866  0.78453303     0.12100
H2935       H  0.75708615  0.78337024  0.76602123     0.14800
H2936       H  0.73490624  0.78470518  0.71991670     0.13600
H2937       H  0.76376334  0.89503421  0.76526856     0.11300
H2938       H  0.72886001  0.89590887  0.72778718     0.13300
C2939       C  0.88289714  0.72346222  0.74377974     0.19400
C2940       C  0.86995187  0.72006185  0.72459610    -0.18700
C2941       C  0.84655633  0.72003568  0.72580555    -0.11000
C2942       C  0.83565448  0.72308012  0.74640567     0.21600
C2943       C  0.84867910  0.72600146  0.76562555    -0.20300
C2944       C  0.87200690  0.72610220  0.76439801    -0.11200
C2945       C  0.81090699  0.72463436  0.74865651    -0.15300
C2946       C  0.79610568  0.71848638  0.73298037    -0.29200
C2947       C  0.90765834  0.72375273  0.74175883    -0.03500
C2948       C  0.92094843  0.73468643  0.75605900    -0.40000
H2949       H  0.87796760  0.71786807  0.70852891     0.12800
H2950       H  0.83722316  0.71814595  0.71051695     0.12400
H2951       H  0.84075188  0.72832268  0.78172585     0.11800
H2952       H  0.88138742  0.72802554  0.77966687     0.12100
H2953       H  0.80460938  0.73087825  0.76446334     0.14800
H2954       H  0.80168772  0.71021130  0.71787590     0.13600
H2955       H  0.91511278  0.71544165  0.72741947     0.11300
H2956       H  0.91372492  0.74426289  0.76967679     0.13300
C2957       C  0.75249949  0.73334406  0.87939165     0.19400
C2958       C  0.75991490  0.74878842  0.86341461    -0.18700
C2959       C  0.75593591  0.74540583  0.84067057    -0.11000
C2960       C  0.74473424  0.72617822  0.83331898     0.21600
C2961       C  0.73751993  0.71065623  0.84929750    -0.20300
C2962       C  0.74150134  0.71403352  0.87200748    -0.11200
C2963       C  0.73985377  0.72192585  0.80931141    -0.15300
C2964       C  0.75170139  0.73107638  0.79260699    -0.29200
C2965       C  0.75672629  0.73770584  0.90349849    -0.03500
C2966       C  0.74418581  0.72879368  0.91982855    -0.40000
H2967       H  0.76845090  0.76376018  0.86857942     0.12800
H2968       H  0.76124716  0.75818239  0.82907503     0.12400
H2969       H  0.72895602  0.69568407  0.84416483     0.11800
H2970       H  0.73619769  0.70124416  0.88360213     0.12100
H2971       H  0.72653460  0.71043477  0.80545412     0.14800
H2972       H  0.76565215  0.74172469  0.79655996     0.13600
H2973       H  0.77015218  0.74893047  0.90787233     0.11300
H2974       H  0.73013664  0.71834685  0.91560676     0.13300
C2975       C  0.66456129  0.65918979  0.66351634     0.19400
C2976       C  0.66038177  0.66477423  0.68588270    -0.18700
C2977       C  0.67576222  0.67732693  0.69809115    -0.11000
C2978       C  0.69564485  0.68478796  0.68806205     0.21600
C2979       C  0.69941549  0.67981832  0.66548648    -0.20300
C2980       C  0.68414601  0.66717695  0.65335610    -0.11200
C2981       C  0.71243615  0.69854472  0.70004107    -0.15300
C2982       C  0.71443589  0.69981780  0.72242845    -0.29200
C2983       C  0.64826371  0.64506315  0.65126795    -0.03500
C2984       C  0.65453200  0.63101972  0.63475653    -0.40000
H2985       H  0.64528450  0.65913562  0.69404060     0.12800
H2986       H  0.67181063  0.68137225  0.71521659     0.12400
H2987       H  0.71433342  0.68569114  0.65717167     0.11800
H2988       H  0.68763313  0.66397663  0.63595397     0.12100
H2989       H  0.72419520  0.70784205  0.68986564     0.14800
H2990       H  0.70358282  0.69017197  0.73319155     0.13600
H2991       H  0.63101130  0.64494043  0.65699561     0.11300
H2992       H  0.67207424  0.63042959  0.62998018     0.13300
C2993       C  0.86933104  0.00224824  0.01652048     0.19400
C2994       C  0.85502065  0.98398718  0.01871994    -0.18700
C2995       C  0.83183300  0.98731174  0.01990256    -0.11000
C2996       C  0.82244743  0.00907519  0.01909552     0.21600
C2997       C  0.83681410  0.02739357  0.01792445    -0.20300
C2998       C  0.86001702  0.02405812  0.01652950    -0.11200
C2999       C  0.79780463  0.01306622  0.01956535    -0.15300
C3000       C  0.78351133  0.99857063  0.01040557    -0.29200
C3001       C  0.89384458  0.99800333  0.01457038    -0.03500
C3002       C  0.90738196  0.01170172  0.00313080    -0.40000
H3003       H  0.86178832  0.96705937  0.01918357     0.12800
H3004       H  0.82132512  0.97281097  0.02164341     0.12400
H3005       H  0.83003870  0.04432073  0.01769313     0.11800
H3006       H  0.87059222  0.03857850  0.01567718     0.12100
H3007       H  0.79154040  0.02876952  0.02632782     0.14800
H3008       H  0.79020252  0.98384765  0.00204906     0.13600
H3009       H  0.90069952  0.98260485  0.02169967     0.11300
H3010       H  0.90038570  0.02636901  0.99475259     0.13300
C3011       C  0.73764065  0.99464685  0.87063861     0.19400
C3012       C  0.73317808  0.01366964  0.88360040    -0.18700
C3013       C  0.73381710  0.01243233  0.90687420    -0.11000
C3014       C  0.73853448  0.99192660  0.91773633     0.21600
C3015       C  0.74290853  0.97288776  0.90476097    -0.20300
C3016       C  0.74232169  0.97414172  0.88147975    -0.11200
C3017       C  0.73962191  0.98985544  0.94244439    -0.15300
C3018       C  0.72883442  0.00404883  0.95623191    -0.29200
C3019       C  0.73689164  0.99679664  0.84594928    -0.03500
C3020       C  0.74800699  0.98285434  0.83213500    -0.40000
H3021       H  0.72954893  0.02966003  0.87567408     0.12800
H3022       H  0.73105101  0.02768077  0.91616603     0.12400
H3023       H  0.74657327  0.95690306  0.91268320     0.11800
H3024       H  0.74520397  0.95893880  0.87213318     0.12100
H3025       H  0.74898837  0.97572008  0.94921710     0.14800
H3026       H  0.71830348  0.01727152  0.94925023     0.13600
H3027       H  0.72749504  0.01088546  0.83894502     0.11300
H3028       H  0.75838639  0.96934312  0.83881826     0.13300
C3029       C  0.73783910  0.86303769  0.00720947     0.19400
C3030       C  0.73183864  0.87647562  0.02549329    -0.18700
C3031       C  0.73071848  0.89986268  0.02347636    -0.11000
C3032       C  0.73531755  0.91036331  0.00291896     0.21600
C3033       C  0.74098475  0.89687295  0.98459635    -0.20300
C3034       C  0.74210829  0.87355443  0.98661437    -0.11200
C3035       C  0.73543338  0.93516785  0.99983712    -0.15300
C3036       C  0.72666738  0.95010761  0.01432183    -0.29200
C3037       C  0.73912881  0.83821832  0.01019993    -0.03500
C3038       C  0.75058327  0.82439656  0.99643154    -0.40000
H3039       H  0.72836579  0.86886219  0.04153446     0.12800
H3040       H  0.72671049  0.90949343  0.03818318     0.12400
H3041       H  0.74455593  0.90442476  0.96853570     0.11800
H3042       H  0.74606485  0.86394951  0.97187240     0.12100
H3043       H  0.74280282  0.94119882  0.98447473     0.14800
H3044       H  0.71775017  0.94433375  0.02895725     0.13600
H3045       H  0.73090801  0.83114951  0.02472869     0.11300
H3046       H  0.75979880  0.83113278  0.98240861     0.13300
C3047       C  0.66294112  0.07634408  0.09153982     0.19400
C3048       C  0.65613849  0.06823133  0.07074885    -0.18700
C3049       C  0.67009072  0.05383464  0.05847092    -0.11000
C3050       C  0.69118845  0.04707843  0.06682791     0.21600
C3051       C  0.69768609  0.05460953  0.08792635    -0.20300
C3052       C  0.68379524  0.06911358  0.10014515    -0.11200
C3053       C  0.70633688  0.03158079  0.05430992    -0.15300
C3054       C  0.70655528  0.03069075  0.03190936    -0.29200
C3055       C  0.64753383  0.09141880  0.10428642    -0.03500
C3056       C  0.65491454  0.10619308  0.11940675    -0.40000
H3057       H  0.63998655  0.07310774  0.06394374     0.12800
H3058       H  0.66408302  0.04770159  0.04266050     0.12400
H3059       H  0.71361273  0.04930795  0.09495156     0.11800
H3060       H  0.68928070  0.07420207  0.11651739     0.12100
H3061       H  0.71797620  0.02100203  0.06367083     0.14800
H3062       H  0.69582024  0.04213559  0.02252230     0.13600
H3063       H  0.62982059  0.09079216  0.10054704     0.11300
H3064       H  0.67289964  0.10800412  0.12111269     0.13300
loop_ 
_geom_bond_atom_site_label_1 
_geom_bond_atom_site_label_2 
_geom_bond_distance 
_geom_bond_site_symmetry_2 
_ccdc_geom_bond_type 
C1            C2   1.538   1_545  S
C1            C7   1.533   1_554  S
C1            C5   1.540       .  S
C1         C3054   1.515       .  S
C2            H9   1.086       .  S
C2            C3   1.368       .  D
C3            C4   1.544   1_554  S
C3         C3036   1.491       .  S
C4            C8   1.542   1_565  S
C4            C6   1.537   1_566  S
C4           H10   1.103       .  S
C5           H11   1.085       .  S
C5            C6   1.372       .  D
C6         C3000   1.486   1_545  S
C7           H12   1.087       .  S
C7            C8   1.361       .  D
C8         C3018   1.486       .  S
C13          C14   1.549       .  S
C13          C19   1.539       .  S
C13          C17   1.537       .  S
C13        C2982   1.520       .  S
C14          H21   1.084       .  S
C14          C15   1.374       .  D
C15          C16   1.529       .  S
C15        C2964   1.488       .  S
C16          C20   1.539       .  S
C16          C18   1.538       .  S
C16          H22   1.107       .  S
C17          H23   1.086       .  S
C17          C18   1.363       .  D
C18        C2928   1.484       .  S
C19          H24   1.086       .  S
C19          C20   1.365       .  D
C20        C2946   1.485       .  S
C25          C26   1.536   1_545  S
C25          C31   1.536       .  S
C25          C29   1.533   1_455  S
C25        C2912   1.512       .  S
C26          H33   1.086       .  S
C26          C27   1.369       .  D
C27          C28   1.548   1_455  S
C27        C2892   1.492       .  S
C28          C32   1.543   1_665  S
C28          C30   1.540   1_565  S
C28          H34   1.100       .  S
C29          H35   1.087       .  S
C29          C30   1.360       .  D
C30        C2876   1.481       .  S
C31          H36   1.086       .  S
C31          C32   1.366       .  D
C32        C2856   1.485       .  S
C37          C38   1.537       .  S
C37          C43   1.539       .  S
C37          C41   1.542       .  S
C37        C2802   1.519       .  S
C38          H45   1.086       .  S
C38          C39   1.364       .  D
C39          C40   1.543       .  S
C39        C2784   1.488       .  S
C40          C44   1.541       .  S
C40          C42   1.533       .  S
C40          H46   1.105       .  S
C41          H47   1.085       .  S
C41          C42   1.370       .  D
C42        C2820   1.483       .  S
C43          H48   1.086       .  S
C43          C44   1.366       .  D
C44        C2838   1.489       .  S
O49          C65   1.274       .  A
O49         Zn55   2.021       .  S
C50          O66   1.274       .  A
C50          O63   1.275       .  A
C50        C2840   1.480       .  S
O51          C64   1.275       .  A
O51         Cd58   2.066       .  S
O52          C70   1.277       .  A
O52         Cd61   2.088       .  S
O53          C67   1.278       .  A
O53         Cd57   2.078       .  S
O54          C65   1.275       .  A
O54         Cd57   2.082       .  S
Zn55         O66   2.022       .  S
Zn55         O68   2.015       .  S
Zn55         O60   1.946       .  S
O56          C67   1.276       .  A
O56         Cd61   2.074       .  S
Cd57         O59   2.092       .  S
Cd57         O60   2.013       .  S
Cd58         O62   2.065       .  S
Cd58         O71   2.070       .  S
Cd58         O60   1.997       .  S
O59          C69   1.278       .  A
O60         Cd61   2.011       .  S
Cd61         O63   2.082       .  S
O62          C69   1.273       .  A
C64          O68   1.273       .  A
C64        C2748   1.474       .  S
C65        C2730   1.479       .  S
C67        C2694   1.476       .  S
C69        C2712   1.478       .  S
C70          O71   1.274       .  A
C70        C2768   1.479       .  S
C72          C73   1.541       .  S
C72          C78   1.537       .  S
C72          C76   1.538       .  S
C72        C2676   1.519       .  S
C73          H80   1.086       .  S
C73          C74   1.367       .  D
C74          C75   1.540       .  S
C74        C2640   1.488       .  S
C75          C79   1.543       .  S
C75          C77   1.540       .  S
C75          H81   1.102       .  S
C76          H82   1.086       .  S
C76          C77   1.366       .  D
C77        C2658   1.486       .  S
C78          H83   1.086       .  S
C78          C79   1.366       .  D
C79        C2732   1.489       .  S
C84          C85   1.535   1_554  S
C84          C90   1.538       .  S
C84          C88   1.538       .  S
C84        C2622   1.513       .  S
C85          H92   1.087       .  S
C85          C86   1.361       .  D
C86          C87   1.538       .  S
C86        C2750   1.483       .  S
C87          C91   1.542   1_556  S
C87          C89   1.543   1_556  S
C87          H93   1.098       .  S
C88          H94   1.086       .  S
C88          C89   1.368       .  D
C89        C2586   1.490       .  S
C90          H95   1.086       .  S
C90          C91   1.367       .  D
C91        C2604   1.487       .  S
O96         C112   1.277       .  A
O96        Zn102   2.035       .  S
C97         O113   1.277       .  A
C97         O110   1.274   1_556  A
C97        C2550   1.479       .  S
O98         C111   1.272       .  A
O98        Cd105   2.051       .  S
O99         C117   1.273       .  A
O99        Cd108   2.071       .  S
O100        C114   1.277       .  A
O100       Cd104   2.084       .  S
O101        C112   1.277   1_554  A
O101       Cd104   2.079       .  S
Zn102       O113   2.043       .  S
Zn102       O115   2.057       .  S
Zn102       O107   1.956   1_556  S
O103        C114   1.272       .  A
O103       Cd108   2.056       .  S
Cd104       O106   2.085       .  S
Cd104       O107   2.012       .  S
Cd105       O109   2.061   1_556  S
Cd105       O118   2.066       .  S
Cd105       O107   1.990   1_556  S
O106        C116   1.277       .  A
O107       Cd108   1.995       .  S
Cd108       O110   2.056       .  S
O109        C116   1.273       .  A
C111        O115   1.279       .  A
C111       C2966   1.478       .  S
C112       C3038   1.481       .  S
C114       C2568   1.472       .  S
C116       C2532   1.475       .  S
C117        O118   1.274   1_554  A
C117       C2514   1.476       .  S
C119       C2442   1.534       .  S
C119       C2460   1.529       .  S
C119       C2480   1.543       .  S
C119       C2496   1.531       .  S
C120        C121   1.537   1_655  S
C120        C126   1.536       .  S
C120        C124   1.547       .  S
C120       C2478   1.527       .  S
C121        H128   1.087       .  S
C121        C122   1.366       .  D
C122        C123   1.539       .  S
C122       C2424   1.489       .  S
C123        C127   1.543   1_455  S
C123        C125   1.539   1_455  S
C123        H129   1.096       .  S
C124        H130   1.083       .  S
C124        C125   1.368       .  D
C125       C2406   1.489       .  S
C126        H131   1.087       .  S
C126        C127   1.366       .  D
C127       C2388   1.491       .  S
C132        C133   1.539       .  S
C132        C138   1.540       .  S
C132        C136   1.539       .  S
C132       C2462   1.515       .  S
C133        H140   1.086       .  S
C133        C134   1.365       .  D
C134        C135   1.539       .  S
C134       C2516   1.485       .  S
C135        C139   1.534       .  S
C135        C137   1.539       .  S
C135        H141   1.107   1_556  S
C136        H142   1.086       .  S
C136        C137   1.363       .  D
C137       C2370   1.483   1_556  S
C138        H143   1.085       .  S
C138        C139   1.370       .  D
C139       C2354   1.485       .  S
C144        C145   1.542       .  S
C144        C150   1.543   1_545  S
C144        C148   1.540       .  S
C144       C2334   1.509       .  S
C145        H152   1.085       .  S
C145        C146   1.369       .  D
C146        C147   1.526   1_545  S
C146       C2282   1.478       .  S
C147        C151   1.527       .  S
C147        C149   1.534   1_565  S
C147        H153   1.109       .  S
C148        H154   1.086       .  S
C148        C149   1.362       .  D
C149       C2298   1.479       .  S
C150        H155   1.086       .  S
C150        C151   1.367       .  D
C151       C2316   1.475       .  S
C156       C2262   1.536       .  S
C156       C2336   1.523       .  S
C156       C2804   1.543       .  S
C156       C2910   1.536       .  S
C157        C158   1.544   1_554  S
C157        C163   1.541       .  S
C157        C161   1.541       .  S
C157       C2244   1.519       .  S
C158        H165   1.084       .  S
C158        C159   1.370       .  D
C159        C160   1.527   1_556  S
C159       C2226   1.484       .  S
C160        C164   1.538   1_455  S
C160        C162   1.538       .  S
C160        H166   1.105   1_454  S
C161        H167   1.086       .  S
C161        C162   1.367       .  D
C162       C2208   1.487       .  S
C163        H168   1.086       .  S
C163        C164   1.367   1_455  D
C164       C2552   1.487       .  S
C169        C170   1.538       .  S
C169        C175   1.545   1_554  S
C169        C173   1.544       .  S
C169       C2172   1.520       .  S
C170        H177   1.087       .  S
C170        C171   1.362       .  D
C171        C172   1.537   1_554  S
C171       C2190   1.485       .  S
C172        C176   1.538       .  S
C172        C174   1.529   1_556  S
C172        H178   1.104       .  S
C173        H179   1.085       .  S
C173        C174   1.370       .  D
C174       C2138   1.480   1_554  S
C175        H180   1.086       .  S
C175        C176   1.369       .  D
C176       C2156   1.490       .  S
C181        C182   1.536       .  S
C181        C187   1.537       .  S
C181        C185   1.539       .  S
C181       C2118   1.520       .  S
C182        H189   1.086       .  S
C182        C183   1.366       .  D
C183        C184   1.544       .  S
C183       C2102   1.489       .  S
C184        C188   1.543       .  S
C184        C186   1.542       .  S
C184        H190   1.101       .  S
C185        H191   1.086       .  S
C185        C186   1.367       .  D
C186       C2064   1.487       .  S
C187        H192   1.086       .  S
C187        C188   1.366       .  D
C188       C2082   1.489       .  S
C193       C2048   1.538       .  S
C193       C2120   1.537       .  S
C193       C2174   1.536       .  S
C193       C2246   1.538       .  S
C194        C195   1.545       .  S
C194        C200   1.536       .  S
C194        C198   1.544       .  S
C194       C1992   1.523       .  S
C195        H202   1.086       .  S
C195        C196   1.372       .  D
C196        C197   1.542       .  S
C196       C2028   1.495       .  S
C197        C201   1.540       .  S
C197        C199   1.528       .  S
C197        H203   1.105       .  S
C198        H204   1.085       .  S
C198        C199   1.370       .  D
C199       C2010   1.485       .  S
C200        H205   1.086       .  S
C200        C201   1.364       .  D
C201       C1974   1.487       .  S
O206        C222   1.277       .  A
O206       Zn212   2.043       .  S
C207        O223   1.277       .  A
C207        O220   1.275       .  A
C207       C2084   1.481       .  S
O208        C221   1.270       .  A
O208       Cd215   2.042       .  S
O209        C227   1.274       .  A
O209       Cd218   2.076       .  S
O210        C224   1.273       .  A
O210       Cd214   2.062       .  S
O211        C222   1.274       .  A
O211       Cd214   2.068       .  S
Zn212       O223   2.041       .  S
Zn212       O225   2.044       .  S
Zn212       O217   1.952       .  S
O213        C224   1.275       .  A
O213       Cd218   2.069       .  S
Cd214       O216   2.060       .  S
Cd214       O217   1.998       .  S
Cd215       O219   2.056       .  S
Cd215       O228   2.061       .  S
Cd215       O217   1.994       .  S
O216        C226   1.274       .  A
O217       Cd218   1.998       .  S
Cd218       O220   2.064       .  S
O219        C226   1.271       .  A
C221        O225   1.278       .  A
C221       C2318   1.471       .  S
C222       C2030   1.482       .  S
C224       C1920   1.471       .  S
C226       C1938   1.468       .  S
C227        O228   1.273       .  A
C227       C1958   1.476       .  S
O229        C245   1.278       .  A
O229       Zn235   2.047       .  S
C230        O246   1.279       .  A
C230        O243   1.271       .  A
C230       C1902   1.476       .  S
O231        C244   1.272       .  A
O231       Cd238   2.056       .  S
O232        C250   1.271       .  A
O232       Cd241   2.054       .  S
O233        C247   1.276       .  A
O233       Cd237   2.095       .  S
O234        C245   1.275       .  A
O234       Cd237   2.053       .  S
Zn235       O246   2.057       .  S
Zn235       O248   2.068       .  S
Zn235       O240   1.970       .  S
O236        C247   1.271       .  A
O236       Cd241   2.053       .  S
Cd237       O239   2.078       .  S
Cd237       O240   2.007       .  S
Cd238       O242   2.071       .  S
Cd238       O251   2.078       .  S
Cd238       O240   1.997       .  S
O239        C249   1.275       .  A
O240       Cd241   1.985       .  S
Cd241       O243   2.046       .  S
O242        C249   1.276       .  A
C244        O248   1.280       .  A
C244       C1884   1.478       .  S
C245       C2426   1.480       .  S
C247       C2154   1.475       .  S
C249       C2822   1.478       .  S
C250        O251   1.276       .  A
C250       C2642   1.471       .  S
O252        C268   1.277   1_655  A
O252       Zn258   2.043       .  S
C253        O269   1.276   1_455  A
C253        O266   1.274       .  A
C253       C2894   1.481       .  S
O254        C267   1.275       .  A
O254       Cd261   2.063       .  S
O255        C273   1.273   1_455  A
O255       Cd264   2.058       .  S
O256        C270   1.274       .  A
O256       Cd260   2.060       .  S
O257        C268   1.271       .  A
O257       Cd260   2.046       .  S
Zn258       O269   2.040       .  S
Zn258       O271   2.029       .  S
Zn258       O263   1.958   1_655  S
O259        C270   1.273       .  A
O259       Cd264   2.068       .  S
Cd260       O262   2.066       .  S
Cd260       O263   1.988       .  S
Cd261       O265   2.091       .  S
Cd261       O274   2.077       .  S
Cd261       O263   2.008   1_655  S
O262        C272   1.273       .  A
O263       Cd264   1.999       .  S
Cd264       O266   2.065       .  S
O265        C272   1.277   1_655  A
C267        O271   1.276       .  A
C267       C2948   1.476       .  S
C268       C2228   1.472       .  S
C270       C1868   1.472       .  S
C272       C2408   1.480       .  S
C273        O274   1.276       .  A
C273       C1848   1.472       .  S
C275        C276   1.537       .  S
C275        C281   1.542       .  S
C275        C279   1.539       .  S
C275       C1832   1.511       .  S
C276        H283   1.085       .  S
C276        C277   1.364       .  D
C277        C278   1.526       .  S
C277       C1940   1.476       .  S
C278        C282   1.539       .  S
C278        C280   1.537       .  S
C278        H284   1.106       .  S
C279        H285   1.086       .  S
C279        C280   1.365       .  D
C280       C1866   1.480       .  S
C281        H286   1.086       .  S
C281        C282   1.369       .  D
C282       C1904   1.487       .  S
O287        C303   1.275       .  A
O287       Zn293   2.028       .  S
C288        O304   1.279       .  A
C288        O301   1.269       .  A
C288       C1758   1.473       .  S
O289        C302   1.274       .  A
O289       Cd296   2.063       .  S
O290        C308   1.270       .  A
O290       Cd299   2.045       .  S
O291        C305   1.276       .  A
O291       Cd295   2.082       .  S
O292        C303   1.275       .  A
O292       Cd295   2.069       .  S
Zn293       O304   2.058       .  S
Zn293       O306   2.041       .  S
Zn293       O298   1.957       .  S
O294        C305   1.272       .  A
O294       Cd299   2.057       .  S
Cd295       O297   2.070       .  S
Cd295       O298   1.997       .  S
Cd296       O300   2.087       .  S
Cd296       O309   2.096       .  S
Cd296       O298   2.007       .  S
O297        C307   1.275       .  A
O298       Cd299   1.979       .  S
Cd299       O301   2.038       .  S
O300        C307   1.278       .  A
C302        O306   1.279       .  A
C302       C1776   1.477       .  S
C303       C1794   1.478       .  S
C305       C1814   1.472       .  S
C307       C2066   1.477       .  S
C308        O309   1.277       .  A
C308       C2012   1.473       .  S
C310       C1704   1.529       .  S
C310       C1724   1.527       .  S
C310       C1740   1.534       .  S
C310       C1830   1.529       .  S
C311        C312   1.541       .  S
C311        C317   1.555       .  S
C311        C315   1.539       .  S
C311       C1742   1.527       .  S
C312        H319   1.086       .  S
C312        C313   1.366       .  D
C313        C314   1.528       .  S
C313       C1668   1.477       .  S
C314        C318   1.534       .  S
C314        C316   1.537       .  S
C314        H320   1.107       .  S
C315        H321   1.087       .  S
C315        C316   1.364       .  D
C316       C1686   1.484       .  S
C317        H322   1.083       .  S
C317        C318   1.367       .  D
C318       C2766   1.489   1_565  S
C323        C324   1.535   1_556  S
C323        C329   1.535       .  S
C323        C327   1.536       .  S
C323       C1722   1.517       .  S
C324        H331   1.086       .  S
C324        C325   1.366       .  D
C325        C326   1.545       .  S
C325       C1796   1.488       .  S
C326        C330   1.546   1_554  S
C326        C328   1.541       .  S
C326        H332   1.101       .  S
C327        H333   1.087       .  S
C327        C328   1.365   1_556  D
C328       C2534   1.485       .  S
C329        H334   1.086       .  S
C329        C330   1.367       .  D
C330       C1650   1.490       .  S
C335        C336   1.542       .  S
C335        C341   1.545       .  S
C335        C339   1.539       .  S
C335       C1614   1.522       .  S
C336        H343   1.085       .  S
C336        C337   1.369       .  D
C337        C338   1.531       .  S
C337       C1596   1.484       .  S
C338        C342   1.538       .  S
C338        C340   1.537       .  S
C338        H344   1.106       .  S
C339        H345   1.086       .  S
C339        C340   1.363       .  D
C340       C1632   1.484       .  S
C341        H346   1.086       .  S
C341        C342   1.370       .  D
C342       C1578   1.490       .  S
O347        C363   1.278       .  A
O347       Zn353   2.041       .  S
C348        O364   1.277       .  A
C348        O361   1.271       .  A
C348       C1542   1.470       .  S
O349        C362   1.274       .  A
O349       Cd356   2.051       .  S
O350        C368   1.274       .  A
O350       Cd359   2.065       .  S
O351        C365   1.277       .  A
O351       Cd355   2.074       .  S
O352        C363   1.271       .  A
O352       Cd355   2.051       .  S
Zn353       O364   2.050       .  S
Zn353       O366   2.041       .  S
Zn353       O358   1.963       .  S
O354        C365   1.275       .  A
O354       Cd359   2.071       .  S
Cd355       O357   2.085       .  S
Cd355       O358   1.998       .  S
Cd356       O360   2.062       .  S
Cd356       O369   2.065       .  S
Cd356       O358   1.992       .  S
O357        C367   1.276       .  A
O358       Cd359   1.992       .  S
Cd359       O361   2.054       .  S
O360        C367   1.272       .  A
C362        O366   1.277       .  A
C362       C1560   1.478       .  S
C363       C1598   1.474       .  S
C365       C1524   1.477       .  S
C367       C1506   1.475       .  S
C368        O369   1.272       .  A
C368       C2372   1.473       .  S
C370        C371   1.540       .  S
C370        C376   1.539       .  S
C370        C374   1.537       .  S
C370       C1472   1.512       .  S
C371        H378   1.086       .  S
C371        C372   1.367       .  D
C372        C373   1.541       .  S
C372       C1452   1.486       .  S
C373        C377   1.541       .  S
C373        C375   1.528       .  S
C373        H379   1.105       .  S
C374        H380   1.086       .  S
C374        C375   1.363       .  D
C375       C1490   1.475       .  S
C376        H381   1.086       .  S
C376        C377   1.367       .  D
C377       C1544   1.487       .  S
O382        C398   1.273       .  A
O382       Zn388   2.012       .  S
C383        O399   1.273       .  A
C383        O396   1.275   1_565  A
C383       C3020   1.476       .  S
O384        C397   1.272       .  A
O384       Cd391   2.062       .  S
O385        C403   1.273   1_545  A
O385       Cd394   2.062       .  S
O386        C400   1.278       .  A
O386       Cd390   2.096       .  S
O387        C398   1.276   1_545  A
O387       Cd390   2.071       .  S
Zn388       O399   2.019       .  S
Zn388       O401   2.026       .  S
Zn388       O393   1.949       .  S
O389        C400   1.274       .  A
O389       Cd394   2.064       .  S
Cd390       O392   2.087       .  S
Cd390       O393   2.010   1_545  S
Cd391       O395   2.065       .  S
Cd391       O404   2.072       .  S
Cd391       O393   2.000       .  S
O392        C402   1.278   1_545  A
O393       Cd394   1.994   1_565  S
Cd394       O396   2.069       .  S
O395        C402   1.274       .  A
C397        O401   1.275       .  A
C397       C2930   1.476       .  S
C398       C2874   1.475       .  S
C400       C1434   1.478       .  S
C402       C1416   1.477       .  S
C403        O404   1.275       .  A
C403       C1688   1.473       .  S
C405        C406   1.531       .  S
C405        C411   1.541       .  S
C405        C409   1.539       .  S
C405       C2498   1.514       .  S
C406        H413   1.087       .  S
C406        C407   1.358       .  D
C407        C408   1.538       .  S
C407       C1398   1.479       .  S
C408        C412   1.544       .  S
C408        C410   1.542       .  S
C408        H414   1.101       .  S
C409        H415   1.086       .  S
C409        C410   1.368       .  D
C410       C2714   1.488       .  S
C411        H416   1.086       .  S
C411        C412   1.371       .  D
C412       C1436   1.491       .  S
O417        C433   1.275       .  A
O417       Zn423   2.029       .  S
C418        O434   1.274       .  A
C418        O431   1.275       .  A
C418       C1400   1.474       .  S
O419        C432   1.271       .  A
O419       Cd426   2.054       .  S
O420        C438   1.272       .  A
O420       Cd429   2.068       .  S
O421        C435   1.277       .  A
O421       Cd425   2.092       .  S
O422        C433   1.277       .  A
O422       Cd425   2.083       .  S
Zn423       O434   2.024       .  S
Zn423       O436   2.041       .  S
Zn423       O428   1.953       .  S
O424        C435   1.273       .  A
O424       Cd429   2.061       .  S
Cd425       O427   2.074       .  S
Cd425       O428   2.009       .  S
Cd426       O430   2.054       .  S
Cd426       O439   2.069       .  S
Cd426       O428   1.995       .  S
O427        C437   1.277       .  A
O428       Cd429   1.990       .  S
Cd429       O431   2.054       .  S
O430        C437   1.273       .  A
C432        O436   1.277       .  A
C432       C1346   1.476       .  S
C433       C1362   1.481       .  S
C435       C1380   1.477       .  S
C437       C1488   1.469       .  S
C438        O439   1.274       .  A
C438       C1634   1.474       .  S
C440       C1274   1.537       .  S
C440       C1290   1.531       .  S
C440       C1310   1.539       .  S
C440       C1326   1.538       .  S
C441        C442   1.540       .  S
C441        C447   1.536       .  S
C441        C445   1.542       .  S
C441       C1308   1.520       .  S
C442        H449   1.086   1_565  S
C442        C443   1.368   1_565  D
C443        C444   1.542       .  S
C443       C1364   1.490       .  S
C444        C448   1.541   1_545  S
C444        C446   1.534   1_545  S
C444        H450   1.105       .  S
C445        H451   1.085       .  S
C445        C446   1.371       .  D
C446       C1418   1.483       .  S
C447        H452   1.087       .  S
C447        C448   1.364       .  D
C448       C1254   1.487       .  S
C453        C454   1.538   1_655  S
C453        C459   1.539       .  S
C453        C457   1.550       .  S
C453       C1292   1.515       .  S
C454        H461   1.087       .  S
C454        C455   1.360       .  D
C455        C456   1.534       .  S
C455       C1956   1.479       .  S
C456        C460   1.536   1_455  S
C456        C458   1.529   1_455  S
C456        H462   1.109       .  S
C457        H463   1.085       .  S
C457        C458   1.375       .  D
C458       C1236   1.484       .  S
C459        H464   1.086       .  S
C459        C460   1.363       .  D
C460       C1850   1.479       .  S
C465        C466   1.542       .  S
C465        C471   1.541       .  S
C465        C469   1.542       .  S
C465       C1328   1.517       .  S
C466        H473   1.085       .  S
C466        C467   1.369       .  D
C467        C468   1.530       .  S
C467       C1760   1.484       .  S
C468        C472   1.538       .  S
C468        C470   1.539       .  S
C468        H474   1.105       .  S
C469        H475   1.086       .  S
C469        C470   1.367       .  D
C470       C1508   1.489       .  S
C471        H476   1.086       .  S
C471        C472   1.364       .  D
C472       C2570   1.485       .  S
C477        C478   1.540       .  S
C477        C483   1.539       .  S
C477        C481   1.535       .  S
C477       C1218   1.515       .  S
C478        H485   1.086       .  S
C478        C479   1.367       .  D
C479        C480   1.541       .  S
C479       C1200   1.489       .  S
C480        C484   1.541       .  S
C480        C482   1.540       .  S
C480        H486   1.104       .  S
C481        H487   1.087       .  S
C481        C482   1.361       .  D
C482       C1922   1.481       .  S
C483        H488   1.086       .  S
C483        C484   1.368       .  D
C484       C1886   1.486       .  S
O489        C505   1.276       .  A
O489       Zn495   2.041   1_554  S
C490        O506   1.278       .  A
C490        O503   1.271       .  A
C490       C2352   1.473       .  S
O491        C504   1.275       .  A
O491       Cd498   2.073       .  S
O492        C510   1.274       .  A
O492       Cd501   2.065       .  S
O493        C507   1.277       .  A
O493       Cd497   2.084   1_556  S
O494        C505   1.275       .  A
O494       Cd497   2.074       .  S
Zn495       O506   2.047       .  S
Zn495       O508   2.043       .  S
Zn495       O500   1.961       .  S
O496        C507   1.273       .  A
O496       Cd501   2.065       .  S
Cd497       O499   2.072       .  S
Cd497       O500   2.007   1_554  S
Cd498       O502   2.078       .  S
Cd498       O511   2.092       .  S
Cd498       O500   2.005       .  S
O499        C509   1.275   1_554  A
O500       Cd501   1.992       .  S
Cd501       O503   2.047       .  S
O502        C509   1.277       .  A
C504        O508   1.278       .  A
C504       C1652   1.482       .  S
C505       C1182   1.484       .  S
C507       C2588   1.475       .  S
C509       C2136   1.478       .  S
C510        O511   1.276       .  A
C510       C2660   1.483       .  S
C512        C513   1.539       .  S
C512        C518   1.539       .  S
C512        C516   1.545       .  S
C512       C1164   1.521       .  S
C513        H520   1.086       .  S
C513        C514   1.369       .  D
C514        C515   1.543       .  S
C514       C1184   1.492       .  S
C515        C519   1.540       .  S
C515        C517   1.528       .  S
C515        H521   1.105       .  S
C516        H522   1.085       .  S
C516        C517   1.369       .  D
C517       C1526   1.482       .  S
C518        H523   1.086       .  S
C518        C519   1.366       .  D
C519       C1778   1.488       .  S
C524       C1128   1.533       .  S
C524       C1146   1.533       .  S
C524       C1166   1.533       .  S
C524       C1220   1.530       .  S
C525        C526   1.539       .  S
C525        C531   1.540       .  S
C525        C529   1.540       .  S
C525       C1130   1.515       .  S
C526        H533   1.086       .  S
C526        C527   1.365       .  D
C527        C528   1.539       .  S
C527       C1112   1.484       .  S
C528        C532   1.535       .  S
C528        C530   1.538       .  S
C528        H534   1.105       .  S
C529        H535   1.087       .  S
C529        C530   1.364       .  D
C530       C2696   1.488       .  S
C531        H536   1.085       .  S
C531        C532   1.371       .  D
C532       C1344   1.484       .  S
O537        C553   1.274       .  A
O537       Zn543   2.022       .  S
C538        O554   1.275       .  A
C538        O551   1.276       .  A
C538       C1976   1.477       .  S
O539        C552   1.269   1_545  A
O539       Cd546   2.036       .  S
O540        C558   1.275       .  A
O540       Cd549   2.084       .  S
O541        C555   1.276       .  A
O541       Cd545   2.075       .  S
O542        C553   1.276   1_545  A
O542       Cd545   2.077       .  S
Zn543       O554   2.027       .  S
Zn543       O556   2.043       .  S
Zn543       O548   1.952       .  S
O544        C555   1.278   1_565  A
O544       Cd549   2.081       .  S
Cd545       O547   2.085       .  S
Cd545       O548   2.001   1_545  S
Cd546       O550   2.056       .  S
Cd546       O559   2.052   1_545  S
Cd546       O548   1.984   1_545  S
O547        C557   1.277       .  A
O548       Cd549   2.004       .  S
Cd549       O551   2.070       .  S
O550        C557   1.272       .  A
C552        O556   1.277       .  A
C552       C2280   1.469       .  S
C553       C1092   1.478       .  S
C555       C1256   1.478       .  S
C557       C1110   1.474       .  S
C558        O559   1.272       .  A
C558       C1670   1.478       .  S
C560        C561   1.534       .  S
C560        C566   1.539       .  S
C560        C564   1.539       .  S
C560       C1056   1.513       .  S
C561        H568   1.086       .  S
C561        C562   1.364       .  D
C562        C563   1.543       .  S
C562       C1094   1.487       .  S
C563        C567   1.534       .  S
C563        C565   1.542   1_545  S
C563        H569   1.103   1_545  S
C564        H570   1.086   1_545  S
C564        C565   1.366   1_545  D
C565       C1812   1.488       .  S
C566        H571   1.085       .  S
C566        C567   1.368       .  D
C567       C1074   1.484       .  S
C572        C573   1.545       .  S
C572        C578   1.538       .  S
C572        C576   1.539       .  S
C572       C2046   1.515       .  S
C573        H580   1.085       .  S
C573        C574   1.371       .  D
C574        C575   1.528       .  S
C574       C1020   1.480       .  S
C575        C579   1.535   1_455  S
C575        C577   1.540       .  S
C575        H581   1.107   1_455  S
C576        H582   1.086       .  S
C576        C577   1.367       .  D
C577       C1038   1.484       .  S
C578        H583   1.087       .  S
C578        C579   1.361   1_455  D
C579       C1562   1.482       .  S
O584        C600   1.280       .  A
O584       Zn590   2.058       .  S
C585        O601   1.277       .  A
C585        O598   1.276       .  A
C585       C2390   1.480       .  S
O586        C599   1.274       .  A
O586       Cd593   2.063       .  S
O587        C605   1.276       .  A
O587       Cd596   2.075   1_455  S
O588        C602   1.278       .  A
O588       Cd592   2.088       .  S
O589        C600   1.271   1_655  A
O589       Cd592   2.047       .  S
Zn590       O601   2.038       .  S
Zn590       O603   2.046       .  S
Zn590       O595   1.957       .  S
O591        C602   1.274       .  A
O591       Cd596   2.069       .  S
Cd592       O594   2.082   1_655  S
Cd592       O595   2.000   1_655  S
Cd593       O597   2.058       .  S
Cd593       O606   2.066       .  S
Cd593       O595   1.993       .  S
O594        C604   1.277       .  A
O595       Cd596   1.995   1_455  S
Cd596       O598   2.065   1_655  S
O597        C604   1.272       .  A
C599        O603   1.277       .  A
C599       C1202   1.481       .  S
C600       C1238   1.476       .  S
C602       C1580   1.479       .  S
C604       C1022   1.475       .  S
C605        O606   1.273       .  A
C605       C1002   1.475       .  S
C607        C608   1.536       .  S
C607        C613   1.538       .  S
C607        C611   1.540       .  S
C607       C2264   1.516       .  S
C608        H615   1.087       .  S
C608        C609   1.361       .  D
C609        C610   1.539       .  S
C609       C1004   1.482       .  S
C610        C614   1.543       .  S
C610        C612   1.542   1_455  S
C610        H616   1.103       .  S
C611        H617   1.086       .  S
C611        C612   1.369   1_455  D
C612       C1382   1.488       .  S
C613        H618   1.086       .  S
C613        C614   1.367       .  D
C614        C986   1.488       .  S
C619        C620   1.542       .  S
C619        C625   1.539       .  S
C619        C623   1.537       .  S
C619       C1706   1.512       .  S
C620        H627   1.085       .  S
C620        C621   1.371       .  D
C621        C622   1.531       .  S
C621        C950   1.483       .  S
C622        C626   1.537   1_556  S
C622        C624   1.539   1_565  S
C622        H628   1.105   1_565  S
C623        H629   1.086       .  S
C623        C624   1.364   1_565  D
C624        C932   1.484       .  S
C625        H630   1.086       .  S
C625        C626   1.362   1_556  D
C626        C966   1.481       .  S
O631        C647   1.278   1_545  A
O631       Zn637   2.050   1_556  S
C632        O648   1.277   1_556  A
C632        O645   1.275   1_455  A
C632        C894   1.482       .  S
O633        C646   1.276   1_655  A
O633       Cd640   2.076       .  S
O634        C652   1.274   1_556  A
O634       Cd643   2.064       .  S
O635        C649   1.273   1_565  A
O635       Cd639   2.059   1_655  S
O636        C647   1.270       .  A
O636       Cd639   2.041       .  S
Zn637       O648   2.043       .  S
Zn637       O650   2.036       .  S
Zn637       O642   1.960   1_444  S
O638        C649   1.275       .  A
O638       Cd643   2.087       .  S
Cd639       O641   2.052   1_455  S
Cd639       O642   1.987   1_455  S
Cd640       O644   2.093       .  S
Cd640       O653   2.091       .  S
Cd640       O642   2.010   1_554  S
O641        C651   1.272       .  A
O642       Cd643   1.999   1_565  S
Cd643       O645   2.064       .  S
O644        C651   1.278   1_554  A
C646        O650   1.276   1_565  A
C646        C914   1.482       .  S
C647        C948   1.473       .  S
C649       C2858   1.479       .  S
C651       C2210   1.473       .  S
C652        O653   1.279   1_545  A
C652       C3002   1.478       .  S
C654        C655   1.538       .  S
C654        C660   1.537       .  S
C654        C658   1.537   1_565  S
C654       C1272   1.519       .  S
C655        H662   1.086   1_655  S
C655        C656   1.368   1_655  D
C656        C657   1.543   1_465  S
C656        C878   1.489       .  S
C657        C661   1.543   1_545  S
C657        C659   1.542       .  S
C657        H663   1.098   1_655  S
C658        H664   1.086       .  S
C658        C659   1.365       .  D
C659        C858   1.488       .  S
C660        H665   1.086       .  S
C660        C661   1.366       .  D
C661        C912   1.491       .  S
C666        C667   1.541       .  S
C666        C672   1.538       .  S
C666        C670   1.536   1_655  S
C666       C2444   1.516       .  S
C667        H674   1.086   1_556  S
C667        C668   1.367   1_656  D
C668        C669   1.541   1_554  S
C668        C822   1.490       .  S
C669        C673   1.541   1_455  S
C669        C671   1.541       .  S
C669        H675   1.099       .  S
C670        H676   1.086       .  S
C670        C671   1.365       .  D
C671        C840   1.486       .  S
C672        H677   1.086       .  S
C672        C673   1.366       .  D
C673        C896   1.488       .  S
O678        C694   1.274       .  A
O678       Zn684   2.021       .  S
C679        O695   1.274       .  A
C679        O692   1.274   1_556  A
C679       C2192   1.474       .  S
O680        C693   1.274       .  A
O680       Cd687   2.058   1_556  S
O681        C699   1.275       .  A
O681       Cd690   2.080       .  S
O682        C696   1.277       .  A
O682       Cd686   2.083       .  S
O683        C694   1.276       .  A
O683       Cd686   2.080       .  S
Zn684       O695   2.023       .  S
Zn684       O697   2.033       .  S
Zn684       O689   1.949       .  S
O685        C696   1.273   1_554  A
O685       Cd690   2.060       .  S
Cd686       O688   2.087       .  S
Cd686       O689   2.012       .  S
Cd687       O691   2.057       .  S
Cd687       O700   2.070       .  S
Cd687       O689   1.992   1_554  S
O688        C698   1.278       .  A
O689       Cd690   1.997   1_556  S
Cd690       O692   2.057       .  S
O691        C698   1.273   1_554  A
C693        O697   1.275       .  A
C693       C2606   1.477       .  S
C694       C2786   1.478       .  S
C696        C842   1.473       .  S
C698        C930   1.473       .  S
C699        O700   1.273       .  A
C699        C804   1.478       .  S
O701        C717   1.275       .  A
O701       Zn707   2.043       .  S
C702        O718   1.274       .  A
C702        O715   1.275   1_545  A
C702        C968   1.470       .  S
O703        C716   1.276   1_565  A
O703       Cd710   2.076       .  S
O704        C722   1.275       .  A
O704       Cd713   2.075       .  S
O705        C719   1.270       .  A
O705       Cd709   2.049       .  S
O706        C717   1.271       .  A
O706       Cd709   2.045       .  S
Zn707       O718   2.011       .  S
Zn707       O720   2.022       .  S
Zn707       O712   1.949       .  S
O708        C719   1.276   1_565  A
O708       Cd713   2.087       .  S
Cd709       O711   2.038       .  S
Cd709       O712   1.983       .  S
Cd710       O714   2.079       .  S
Cd710       O723   2.089       .  S
Cd710       O712   2.008   1_565  S
O711        C721   1.270       .  A
O712       Cd713   2.002   1_545  S
Cd713       O715   2.062       .  S
O714        C721   1.277   1_565  A
C716        O720   1.274       .  A
C716        C876   1.477       .  S
C717        C786   1.480       .  S
C719       C1076   1.474       .  S
C721       C2300   1.464       .  S
C722        O723   1.278       .  A
C722       C2100   1.481       .  S
O724        C740   1.278       .  A
O724       Zn730   2.046       .  S
C725        O741   1.275       .  A
C725        O738   1.276       .  A
C725        C768   1.477       .  S
O726        C739   1.274       .  A
O726       Cd733   2.055   1_455  S
O727        C745   1.278       .  A
O727       Cd736   2.088       .  S
O728        C742   1.274       .  A
O728       Cd732   2.058       .  S
O729        C740   1.271       .  A
O729       Cd732   2.051       .  S
Zn730       O741   2.025       .  S
Zn730       O743   2.046       .  S
Zn730       O735   1.956       .  S
O731        C742   1.276       .  A
O731       Cd736   2.087       .  S
Cd732       O734   2.060   1_455  S
Cd732       O735   1.989       .  S
Cd733       O737   2.077       .  S
Cd733       O746   2.070   1_655  S
Cd733       O735   1.995   1_655  S
O734        C744   1.272       .  A
O735       Cd736   2.007       .  S
Cd736       O738   2.072       .  S
O737        C744   1.275       .  A
C739        O743   1.277       .  A
C739        C860   1.481       .  S
C740        C824   1.476       .  S
C742       C1040   1.479       .  S
C744       C1454   1.473       .  S
C745        O746   1.275       .  A
C745        C984   1.479       .  S
C747        C748   1.538       .  S
C747        C753   1.538       .  S
C747        C751   1.538       .  S
C747       C1148   1.516       .  S
C748        H755   1.087       .  S
C748        C749   1.362       .  D
C749        C750   1.538       .  S
C749        C806   1.485       .  S
C750        C754   1.542       .  S
C750        C752   1.543       .  S
C750        H756   1.100       .  S
C751        H757   1.086       .  S
C751        C752   1.368       .  D
C752        C770   1.487       .  S
C753        H758   1.086       .  S
C753        C754   1.368       .  D
C754        C788   1.488       .  S
C759       C1058   1.533       .  S
C759       C1470   1.536       .  S
C759       C2624   1.533       .  S
C759       C3056   1.532       .  S
C760       C1616   1.535       .  S
C760       C1994   1.537       .  S
C760       C2678   1.534       .  S
C760       C2984   1.532       .  S
C761        C769   1.488       .  S
C761        C762   1.404       .  A
C761        C766   1.408       .  A
C762        C763   1.397       .  A
C762        H771   1.083       .  S
C763        C764   1.406       .  A
C763        H772   1.082       .  S
C764        C767   1.486       .  S
C764        C765   1.403       .  A
C765        C766   1.400       .  A
C765        H773   1.084       .  S
C766        H774   1.081       .  S
C767        H775   1.087       .  S
C767        C768   1.347       .  D
C768        H776   1.086       .  S
C769        H777   1.084       .  S
C769        C770   1.348       .  D
C770        H778   1.084       .  S
C779        C787   1.489       .  S
C779        C780   1.405       .  A
C779        C784   1.406       .  A
C780        C781   1.399       .  A
C780        H789   1.083       .  S
C781        C782   1.407       .  A
C781        H790   1.080       .  S
C782        C785   1.489       .  S
C782        C783   1.405       .  A
C783        C784   1.398       .  A
C783        H791   1.083       .  S
C784        H792   1.080       .  S
C785        H793   1.087       .  S
C785        C786   1.351       .  D
C786        H794   1.083       .  S
C787        H795   1.082       .  S
C787        C788   1.349       .  D
C788        H796   1.083       .  S
C797        C805   1.487       .  S
C797        C798   1.403       .  A
C797        C802   1.408       .  A
C798        C799   1.398       .  A
C798        H807   1.083       .  S
C799        C800   1.407       .  A
C799        H808   1.082       .  S
C800        C803   1.489       .  S
C800        C801   1.404       .  A
C801        C802   1.401       .  A
C801        H809   1.083       .  S
C802        H810   1.082       .  S
C803        H811   1.087       .  S
C803        C804   1.347       .  D
C804        H812   1.085       .  S
C805        H813   1.086       .  S
C805        C806   1.346       .  D
C806        H814   1.085       .  S
C815        C823   1.489       .  S
C815        C816   1.410       .  A
C815        C820   1.402       .  A
C816        C817   1.399       .  A
C816        H825   1.081       .  S
C817        C818   1.407       .  A
C817        H826   1.081       .  S
C818        C821   1.489       .  S
C818        C819   1.405       .  A
C819        C820   1.398       .  A
C819        H827   1.084       .  S
C820        H828   1.083       .  S
C821        H829   1.082       .  S
C821        C822   1.349       .  D
C822        H830   1.084       .  S
C823        H831   1.087       .  S
C823        C824   1.344       .  D
C824        H832   1.085       .  S
C833        C841   1.485       .  S
C833        C834   1.404       .  A
C833        C838   1.405   1_556  A
C834        C835   1.401       .  A
C834        H843   1.083       .  S
C835        C836   1.409       .  A
C835        H844   1.080       .  S
C836        C839   1.486       .  S
C836        C837   1.403   1_556  A
C837        C838   1.394       .  A
C837        H845   1.084       .  S
C838        H846   1.082       .  S
C839        H847   1.085   1_556  S
C839        C840   1.347       .  D
C840        H848   1.084       .  S
C841        H849   1.087       .  S
C841        C842   1.345       .  D
C842        H850   1.086   1_556  S
C851        C859   1.486       .  S
C851        C852   1.404   1_455  A
C851        C856   1.406       .  A
C852        C853   1.398       .  A
C852        H861   1.084       .  S
C853        C854   1.408   1_655  A
C853        H862   1.080       .  S
C854        C857   1.490       .  S
C854        C855   1.406       .  A
C855        C856   1.399       .  A
C855        H863   1.083       .  S
C856        H864   1.081       .  S
C857        H865   1.084       .  S
C857        C858   1.349   1_455  D
C858        H866   1.083       .  S
C859        H867   1.087   1_455  S
C859        C860   1.349       .  D
C860        H868   1.084       .  S
C869        C877   1.488       .  S
C869        C870   1.404       .  A
C869        C874   1.408       .  A
C870        C871   1.397       .  A
C870        H879   1.083   1_565  S
C871        C872   1.407       .  A
C871        H880   1.082   1_565  S
C872        C875   1.487       .  S
C872        C873   1.403       .  A
C873        C874   1.400       .  A
C873        H881   1.083       .  S
C874        H882   1.081       .  S
C875        H883   1.087       .  S
C875        C876   1.346   1_565  D
C876        H884   1.085       .  S
C877        H885   1.081   1_565  S
C877        C878   1.348       .  D
C878        H886   1.083       .  S
C887        C895   1.491       .  S
C887        C888   1.406   1_556  A
C887        C892   1.407   1_455  A
C888        C889   1.399       .  A
C888        H897   1.083       .  S
C889        C890   1.407   1_454  A
C889        H898   1.080       .  S
C890        C893   1.491       .  S
C890        C891   1.405       .  A
C891        C892   1.399       .  A
C891        H899   1.084       .  S
C892        H900   1.080       .  S
C893        H901   1.087       .  S
C893        C894   1.350   1_655  D
C894        H902   1.084   1_556  S
C895        H903   1.084   1_556  S
C895        C896   1.350   1_455  D
C896        H904   1.083       .  S
C905        C913   1.492       .  S
C905        C906   1.404       .  A
C905        C910   1.408   1_655  A
C906        C907   1.400       .  A
C906        H915   1.084       .  S
C907        C908   1.408       .  A
C907        H916   1.079       .  S
C908        C911   1.494       .  S
C908        C909   1.406   1_655  A
C909        C910   1.400       .  A
C909        H917   1.083       .  S
C910        H918   1.080       .  S
C911        H919   1.083   1_655  S
C911        C912   1.350       .  D
C912        H920   1.083       .  S
C913        H921   1.087       .  S
C913        C914   1.349   1_655  D
C914        H922   1.084   1_565  S
C923        C931   1.484       .  S
C923        C924   1.402       .  A
C923        C928   1.408       .  A
C924        C925   1.395       .  A
C924        H933   1.084   1_556  S
C925        C926   1.407       .  A
C925        H934   1.082   1_556  S
C926        C929   1.486       .  S
C926        C927   1.403       .  A
C927        C928   1.401       .  A
C927        H935   1.083       .  S
C928        H936   1.082       .  S
C929        H937   1.087       .  S
C929        C930   1.344       .  D
C930        H938   1.086   1_556  S
C931        H939   1.085   1_556  S
C931        C932   1.345       .  D
C932        H940   1.085       .  S
C941        C949   1.485       .  S
C941        C942   1.400       .  A
C941        C946   1.409       .  A
C942        C943   1.397       .  A
C942        H951   1.084       .  S
C943        C944   1.410       .  A
C943        H952   1.081       .  S
C944        C947   1.487       .  S
C944        C945   1.402   1_556  A
C945        C946   1.398   1_554  A
C945        H953   1.083       .  S
C946        H954   1.082   1_556  S
C947        H955   1.087   1_556  S
C947        C948   1.342       .  D
C948        H956   1.085       .  S
C949        H957   1.085       .  S
C949        C950   1.343       .  D
C950        H958   1.086       .  S
C959        C967   1.481       .  S
C959        C960   1.402       .  A
C959        C964   1.406       .  A
C960        C961   1.398       .  A
C960        H969   1.084       .  S
C961        C962   1.409       .  A
C961        H970   1.080       .  S
C962        C965   1.484       .  S
C962        C963   1.403       .  A
C963        C964   1.393       .  A
C963        H971   1.084       .  S
C964        H972   1.081       .  S
C965        H973   1.084       .  S
C965        C966   1.345       .  D
C966        H974   1.083       .  S
C967        H975   1.087       .  S
C967        C968   1.345   1_565  D
C968        H976   1.085       .  S
C977        C985   1.490       .  S
C977        C978   1.404       .  A
C977        C982   1.408       .  A
C978        C979   1.398       .  A
C978        H987   1.084   1_455  S
C979        C980   1.408       .  A
C979        H988   1.081   1_455  S
C980        C983   1.491       .  S
C980        C981   1.405       .  A
C981        C982   1.401       .  A
C981        H989   1.083       .  S
C982        H990   1.081       .  S
C983        H991   1.087       .  S
C983        C984   1.347       .  D
C984        H992   1.084   1_455  S
C985        H993   1.085       .  S
C985        C986   1.348       .  D
C986        H994   1.084       .  S
C995       C1003   1.484       .  S
C995        C996   1.402       .  A
C995       C1000   1.407       .  A
C996        C997   1.398       .  A
C996       H1005   1.083       .  S
C997        C998   1.408       .  A
C997       H1006   1.082       .  S
C998       C1001   1.484       .  S
C998        C999   1.402       .  A
C999       C1000   1.398       .  A
C999       H1007   1.083       .  S
C1000      H1008   1.082       .  S
C1001      H1009   1.087   1_455  S
C1001      C1002   1.345       .  D
C1002      H1010   1.085       .  S
C1003      H1011   1.085       .  S
C1003      C1004   1.344       .  D
C1004      H1012   1.086       .  S
C1013      C1021   1.484       .  S
C1013      C1014   1.401   1_455  A
C1013      C1018   1.409       .  A
C1014      C1015   1.397   1_655  A
C1014      H1023   1.084       .  S
C1015      C1016   1.408       .  A
C1015      H1024   1.083   1_455  S
C1016      C1019   1.484       .  S
C1016      C1017   1.401       .  A
C1017      C1018   1.399       .  A
C1017      H1025   1.083       .  S
C1018      H1026   1.082       .  S
C1019      H1027   1.086       .  S
C1019      C1020   1.342       .  D
C1020      H1028   1.086       .  S
C1021      H1029   1.087   1_455  S
C1021      C1022   1.344       .  D
C1022      H1030   1.086       .  S
C1031      C1039   1.487       .  S
C1031      C1032   1.405       .  A
C1031      C1036   1.407       .  A
C1032      C1033   1.399       .  A
C1032      H1041   1.083       .  S
C1033      C1034   1.406       .  A
C1033      H1042   1.082       .  S
C1034      C1037   1.485       .  S
C1034      C1035   1.405       .  A
C1035      C1036   1.399       .  A
C1035      H1043   1.084       .  S
C1036      H1044   1.081       .  S
C1037      H1045   1.086       .  S
C1037      C1038   1.348       .  D
C1038      H1046   1.085       .  S
C1039      H1047   1.087       .  S
C1039      C1040   1.349       .  D
C1040      H1048   1.084       .  S
C1049      C1057   1.487       .  S
C1049      C1050   1.404       .  A
C1049      C1054   1.407       .  A
C1050      C1051   1.397       .  A
C1050      H1059   1.084       .  S
C1051      C1052   1.407       .  A
C1051      H1060   1.081       .  S
C1052      C1055   1.489       .  S
C1052      C1053   1.405       .  A
C1053      C1054   1.401       .  A
C1053      H1061   1.083       .  S
C1054      H1062   1.082       .  S
C1055      H1063   1.087       .  S
C1055      C1056   1.348       .  D
C1056      H1064   1.084       .  S
C1057      H1065   1.084       .  S
C1057      C1058   1.351       .  D
C1058      H1066   1.086       .  S
C1067      C1075   1.483       .  S
C1067      C1068   1.401   1_545  A
C1067      C1072   1.408       .  A
C1068      C1069   1.398       .  A
C1068      H1077   1.083       .  S
C1069      C1070   1.408   1_565  A
C1069      H1078   1.083       .  S
C1070      C1073   1.484       .  S
C1070      C1071   1.402       .  A
C1071      C1072   1.399       .  A
C1071      H1079   1.083       .  S
C1072      H1080   1.082       .  S
C1073      H1081   1.085       .  S
C1073      C1074   1.344       .  D
C1074      H1082   1.086   1_545  S
C1075      H1083   1.087   1_545  S
C1075      C1076   1.342       .  D
C1076      H1084   1.086       .  S
C1085      C1093   1.492       .  S
C1085      C1086   1.405   1_545  A
C1085      C1090   1.410       .  A
C1086      C1087   1.397       .  A
C1086      H1095   1.083       .  S
C1087      C1088   1.407   1_565  A
C1087      H1096   1.081       .  S
C1088      C1091   1.490       .  S
C1088      C1089   1.404       .  A
C1089      C1090   1.400       .  A
C1089      H1097   1.084       .  S
C1090      H1098   1.079       .  S
C1091      H1099   1.087       .  S
C1091      C1092   1.347   1_545  D
C1092      H1100   1.084       .  S
C1093      H1101   1.084   1_545  S
C1093      C1094   1.348       .  D
C1094      H1102   1.082       .  S
C1103      C1111   1.486       .  S
C1103      C1104   1.403       .  A
C1103      C1108   1.408       .  A
C1104      C1105   1.395       .  A
C1104      H1113   1.084       .  S
C1105      C1106   1.407       .  A
C1105      H1114   1.081       .  S
C1106      C1109   1.488       .  S
C1106      C1107   1.404       .  A
C1107      C1108   1.401       .  A
C1107      H1115   1.083       .  S
C1108      H1116   1.081       .  S
C1109      H1117   1.087       .  S
C1109      C1110   1.345       .  D
C1110      H1118   1.085       .  S
C1111      H1119   1.085       .  S
C1111      C1112   1.345       .  D
C1112      H1120   1.084       .  S
C1121      C1129   1.492       .  S
C1121      C1122   1.406       .  A
C1121      C1126   1.407       .  A
C1122      C1123   1.404       .  A
C1122      H1131   1.083       .  S
C1123      C1124   1.408       .  A
C1123      H1132   1.082       .  S
C1124      C1127   1.489       .  S
C1124      C1125   1.403       .  A
C1125      C1126   1.397       .  A
C1125      H1133   1.084       .  S
C1126      H1134   1.081       .  S
C1127      H1135   1.088       .  S
C1127      C1128   1.351       .  D
C1128      H1136   1.085       .  S
C1129      H1137   1.087       .  S
C1129      C1130   1.348       .  D
C1130      H1138   1.085       .  S
C1139      C1147   1.491       .  S
C1139      C1140   1.405       .  A
C1139      C1144   1.407       .  A
C1140      C1141   1.404       .  A
C1140      H1149   1.083       .  S
C1141      C1142   1.411       .  A
C1141      H1150   1.081       .  S
C1142      C1145   1.493       .  S
C1142      C1143   1.403       .  A
C1143      C1144   1.397       .  A
C1143      H1151   1.084       .  S
C1144      H1152   1.082       .  S
C1145      H1153   1.088       .  S
C1145      C1146   1.349       .  D
C1146      H1154   1.085       .  S
C1147      H1155   1.086       .  S
C1147      C1148   1.348       .  D
C1148      H1156   1.086       .  S
C1157      C1165   1.496       .  S
C1157      C1158   1.405       .  A
C1157      C1162   1.409       .  A
C1158      C1159   1.402       .  A
C1158      H1167   1.083       .  S
C1159      C1160   1.409       .  A
C1159      H1168   1.081       .  S
C1160      C1163   1.497       .  S
C1160      C1161   1.405       .  A
C1161      C1162   1.403       .  A
C1161      H1169   1.083       .  S
C1162      H1170   1.081       .  S
C1163      H1171   1.087       .  S
C1163      C1164   1.349       .  D
C1164      H1172   1.084       .  S
C1165      H1173   1.087       .  S
C1165      C1166   1.351       .  D
C1166      H1174   1.085       .  S
C1175      C1183   1.495       .  S
C1175      C1176   1.407       .  A
C1175      C1180   1.408       .  A
C1176      C1177   1.400       .  A
C1176      H1185   1.083       .  S
C1177      C1178   1.407       .  A
C1177      H1186   1.080       .  S
C1178      C1181   1.495       .  S
C1178      C1179   1.406       .  A
C1179      C1180   1.402       .  A
C1179      H1187   1.083       .  S
C1180      H1188   1.080       .  S
C1181      H1189   1.087       .  S
C1181      C1182   1.351       .  D
C1182      H1190   1.083       .  S
C1183      H1191   1.084       .  S
C1183      C1184   1.352       .  D
C1184      H1192   1.083       .  S
C1193      C1201   1.491       .  S
C1193      C1194   1.406       .  A
C1193      C1198   1.406       .  A
C1194      C1195   1.402       .  A
C1194      H1203   1.083       .  S
C1195      C1196   1.408       .  A
C1195      H1204   1.080       .  S
C1196      C1199   1.491       .  S
C1196      C1197   1.405       .  A
C1197      C1198   1.397       .  A
C1197      H1205   1.084       .  S
C1198      H1206   1.081       .  S
C1199      H1207   1.084       .  S
C1199      C1200   1.349       .  D
C1200      H1208   1.083       .  S
C1201      H1209   1.087       .  S
C1201      C1202   1.351       .  D
C1202      H1210   1.084       .  S
C1211      C1219   1.489       .  S
C1211      C1212   1.403       .  A
C1211      C1216   1.409       .  A
C1212      C1213   1.400       .  A
C1212      H1221   1.083       .  S
C1213      C1214   1.409       .  A
C1213      H1222   1.082       .  S
C1214      C1217   1.490       .  S
C1214      C1215   1.402       .  A
C1215      C1216   1.401       .  A
C1215      H1223   1.084       .  S
C1216      H1224   1.081       .  S
C1217      H1225   1.087       .  S
C1217      C1218   1.344       .  D
C1218      H1226   1.086       .  S
C1219      H1227   1.087       .  S
C1219      C1220   1.348       .  D
C1220      H1228   1.086       .  S
C1229      C1237   1.489       .  S
C1229      C1230   1.400       .  A
C1229      C1234   1.410   1_455  A
C1230      C1231   1.397   1_455  A
C1230      H1239   1.084       .  S
C1231      C1232   1.411       .  A
C1231      H1240   1.082       .  S
C1232      C1235   1.491       .  S
C1232      C1233   1.402       .  A
C1233      C1234   1.401       .  A
C1233      H1241   1.083       .  S
C1234      H1242   1.082       .  S
C1235      H1243   1.085       .  S
C1235      C1236   1.343       .  D
C1236      H1244   1.085   1_655  S
C1237      H1245   1.087       .  S
C1237      C1238   1.342       .  D
C1238      H1246   1.086   1_455  S
C1247      C1255   1.487       .  S
C1247      C1248   1.403       .  A
C1247      C1252   1.408   1_565  A
C1248      C1249   1.399       .  A
C1248      H1257   1.083       .  S
C1249      C1250   1.408       .  A
C1249      H1258   1.082       .  S
C1250      C1253   1.487   1_565  S
C1250      C1251   1.403   1_565  A
C1251      C1252   1.399       .  A
C1251      H1259   1.084       .  S
C1252      H1260   1.082       .  S
C1253      H1261   1.084       .  S
C1253      C1254   1.346   1_545  D
C1254      H1262   1.086       .  S
C1255      H1263   1.087       .  S
C1255      C1256   1.346   1_565  D
C1256      H1264   1.086       .  S
C1265      C1273   1.491       .  S
C1265      C1266   1.408       .  A
C1265      C1270   1.404       .  A
C1266      C1267   1.404       .  A
C1266      H1275   1.082       .  S
C1267      C1268   1.410       .  A
C1267      H1276   1.082       .  S
C1268      C1271   1.492       .  S
C1268      C1269   1.403       .  A
C1269      C1270   1.399       .  A
C1269      H1277   1.084       .  S
C1270      H1278   1.083       .  S
C1271      H1279   1.087       .  S
C1271      C1272   1.348       .  D
C1272      H1280   1.085       .  S
C1273      H1281   1.084       .  S
C1273      C1274   1.354       .  D
C1274      H1282   1.086       .  S
C1283      C1291   1.494       .  S
C1283      C1284   1.403       .  A
C1283      C1288   1.410       .  A
C1284      C1285   1.401       .  A
C1284      H1293   1.083       .  S
C1285      C1286   1.405       .  A
C1285      H1294   1.083       .  S
C1286      C1289   1.491       .  S
C1286      C1287   1.407       .  A
C1287      C1288   1.400       .  A
C1287      H1295   1.081       .  S
C1288      H1296   1.081       .  S
C1289      H1297   1.087       .  S
C1289      C1290   1.352       .  D
C1290      H1298   1.085       .  S
C1291      H1299   1.087       .  S
C1291      C1292   1.346       .  D
C1292      H1300   1.084       .  S
C1301      C1309   1.492       .  S
C1301      C1302   1.407       .  A
C1301      C1306   1.405       .  A
C1302      C1303   1.404       .  A
C1302      H1311   1.082       .  S
C1303      C1304   1.411       .  A
C1303      H1312   1.081       .  S
C1304      C1307   1.495       .  S
C1304      C1305   1.403       .  A
C1305      C1306   1.400       .  A
C1305      H1313   1.083       .  S
C1306      H1314   1.083       .  S
C1307      H1315   1.087       .  S
C1307      C1308   1.347       .  D
C1308      H1316   1.085       .  S
C1309      H1317   1.085       .  S
C1309      C1310   1.354       .  D
C1310      H1318   1.086       .  S
C1319      C1327   1.492       .  S
C1319      C1320   1.404       .  A
C1319      C1324   1.408       .  A
C1320      C1321   1.399       .  A
C1320      H1329   1.083       .  S
C1321      C1322   1.409       .  A
C1321      H1330   1.081       .  S
C1322      C1325   1.495       .  S
C1322      C1323   1.405       .  A
C1323      C1324   1.402       .  A
C1323      H1331   1.083       .  S
C1324      H1332   1.081       .  S
C1325      H1333   1.085       .  S
C1325      C1326   1.352       .  D
C1326      H1334   1.085       .  S
C1327      H1335   1.087       .  S
C1327      C1328   1.348       .  D
C1328      H1336   1.084       .  S
C1337      C1345   1.487       .  S
C1337      C1338   1.401       .  A
C1337      C1342   1.409       .  A
C1338      C1339   1.398       .  A
C1338      H1347   1.083       .  S
C1339      C1340   1.409       .  A
C1339      H1348   1.082       .  S
C1340      C1343   1.489       .  S
C1340      C1341   1.402       .  A
C1341      C1342   1.399       .  A
C1341      H1349   1.083       .  S
C1342      H1350   1.082       .  S
C1343      H1351   1.085       .  S
C1343      C1344   1.344       .  D
C1344      H1352   1.084       .  S
C1345      H1353   1.087       .  S
C1345      C1346   1.343       .  D
C1346      H1354   1.085       .  S
C1355      C1363   1.491       .  S
C1355      C1356   1.404       .  A
C1355      C1360   1.408       .  A
C1356      C1357   1.398       .  A
C1356      H1365   1.084       .  S
C1357      C1358   1.408       .  A
C1357      H1366   1.081       .  S
C1358      C1361   1.493       .  S
C1358      C1359   1.405       .  A
C1359      C1360   1.402       .  A
C1359      H1367   1.084       .  S
C1360      H1368   1.081       .  S
C1361      H1369   1.087       .  S
C1361      C1362   1.349       .  D
C1362      H1370   1.084       .  S
C1363      H1371   1.084       .  S
C1363      C1364   1.348       .  D
C1364      H1372   1.084       .  S
C1373      C1381   1.487       .  S
C1373      C1374   1.403       .  A
C1373      C1378   1.408       .  A
C1374      C1375   1.396       .  A
C1374      H1383   1.083       .  S
C1375      C1376   1.406       .  A
C1375      H1384   1.082       .  S
C1376      C1379   1.487       .  S
C1376      C1377   1.404       .  A
C1377      C1378   1.403       .  A
C1377      H1385   1.083       .  S
C1378      H1386   1.082       .  S
C1379      H1387   1.087       .  S
C1379      C1380   1.345       .  D
C1380      H1388   1.087       .  S
C1381      H1389   1.085       .  S
C1381      C1382   1.347       .  D
C1382      H1390   1.085       .  S
C1391      C1399   1.480       .  S
C1391      C1392   1.401       .  A
C1391      C1396   1.407       .  A
C1392      C1393   1.393       .  A
C1392      H1401   1.084       .  S
C1393      C1394   1.407       .  A
C1393      H1402   1.082       .  S
C1394      C1397   1.482       .  S
C1394      C1395   1.403       .  A
C1395      C1396   1.399       .  A
C1395      H1403   1.083       .  S
C1396      H1404   1.082       .  S
C1397      H1405   1.084       .  S
C1397      C1398   1.344       .  D
C1398      H1406   1.085       .  S
C1399      H1407   1.087       .  S
C1399      C1400   1.344       .  D
C1400      H1408   1.085       .  S
C1409      C1417   1.487       .  S
C1409      C1410   1.402       .  A
C1409      C1414   1.408   1_565  A
C1410      C1411   1.399       .  A
C1410      H1419   1.083       .  S
C1411      C1412   1.408       .  A
C1411      H1420   1.082       .  S
C1412      C1415   1.486       .  S
C1412      C1413   1.402   1_565  A
C1413      C1414   1.400       .  A
C1413      H1421   1.083       .  S
C1414      H1422   1.082       .  S
C1415      H1423   1.087   1_565  S
C1415      C1416   1.345       .  D
C1416      H1424   1.087       .  S
C1417      H1425   1.086       .  S
C1417      C1418   1.343       .  D
C1418      H1426   1.086   1_565  S
C1427      C1435   1.489       .  S
C1427      C1428   1.404       .  A
C1427      C1432   1.408       .  A
C1428      C1429   1.397       .  A
C1428      H1437   1.084       .  S
C1429      C1430   1.407       .  A
C1429      H1438   1.082       .  S
C1430      C1433   1.491       .  S
C1430      C1431   1.405       .  A
C1431      C1432   1.404       .  A
C1431      H1439   1.083       .  S
C1432      H1440   1.081       .  S
C1433      H1441   1.086       .  S
C1433      C1434   1.347       .  D
C1434      H1442   1.085       .  S
C1435      H1443   1.083       .  S
C1435      C1436   1.348       .  D
C1436      H1444   1.084       .  S
C1445      C1453   1.485       .  S
C1445      C1446   1.404       .  A
C1445      C1450   1.406       .  A
C1446      C1447   1.402       .  A
C1446      H1455   1.083       .  S
C1447      C1448   1.409       .  A
C1447      H1456   1.080       .  S
C1448      C1451   1.486       .  S
C1448      C1449   1.403       .  A
C1449      C1450   1.394       .  A
C1449      H1457   1.084       .  S
C1450      H1458   1.082       .  S
C1451      H1459   1.084       .  S
C1451      C1452   1.346       .  D
C1452      H1460   1.084       .  S
C1453      H1461   1.087       .  S
C1453      C1454   1.345       .  D
C1454      H1462   1.086       .  S
C1463      C1471   1.488       .  S
C1463      C1464   1.402       .  A
C1463      C1468   1.408       .  A
C1464      C1465   1.400       .  A
C1464      H1473   1.083       .  S
C1465      C1466   1.405       .  A
C1465      H1474   1.083       .  S
C1466      C1469   1.489       .  S
C1466      C1467   1.408       .  A
C1467      C1468   1.399       .  A
C1467      H1475   1.081       .  S
C1468      H1476   1.082       .  S
C1469      H1477   1.083       .  S
C1469      C1470   1.352       .  D
C1470      H1478   1.085       .  S
C1471      H1479   1.087       .  S
C1471      C1472   1.345       .  D
C1472      H1480   1.086       .  S
C1481      C1489   1.476       .  S
C1481      C1482   1.399       .  A
C1481      C1486   1.407       .  A
C1482      C1483   1.394       .  A
C1482      H1491   1.083       .  S
C1483      C1484   1.407       .  A
C1483      H1492   1.082       .  S
C1484      C1487   1.478       .  S
C1484      C1485   1.401       .  A
C1485      C1486   1.397       .  A
C1485      H1493   1.083       .  S
C1486      H1494   1.083       .  S
C1487      H1495   1.087       .  S
C1487      C1488   1.342       .  D
C1488      H1496   1.086       .  S
C1489      H1497   1.086       .  S
C1489      C1490   1.340       .  D
C1490      H1498   1.086       .  S
C1499      C1507   1.488       .  S
C1499      C1500   1.404       .  A
C1499      C1504   1.408       .  A
C1500      C1501   1.396       .  A
C1500      H1509   1.084       .  S
C1501      C1502   1.405       .  A
C1501      H1510   1.082       .  S
C1502      C1505   1.487       .  S
C1502      C1503   1.404       .  A
C1503      C1504   1.402       .  A
C1503      H1511   1.083       .  S
C1504      H1512   1.081       .  S
C1505      H1513   1.087       .  S
C1505      C1506   1.345       .  D
C1506      H1514   1.086       .  S
C1507      H1515   1.082       .  S
C1507      C1508   1.348       .  D
C1508      H1516   1.084       .  S
C1517      C1525   1.484       .  S
C1517      C1518   1.402       .  A
C1517      C1522   1.407       .  A
C1518      C1519   1.399       .  A
C1518      H1527   1.084       .  S
C1519      C1520   1.408       .  A
C1519      H1528   1.082       .  S
C1520      C1523   1.484       .  S
C1520      C1521   1.402       .  A
C1521      C1522   1.398       .  A
C1521      H1529   1.084       .  S
C1522      H1530   1.083       .  S
C1523      H1531   1.087       .  S
C1523      C1524   1.345       .  D
C1524      H1532   1.086       .  S
C1525      H1533   1.086       .  S
C1525      C1526   1.343       .  D
C1526      H1534   1.086       .  S
C1535      C1543   1.484       .  S
C1535      C1536   1.403       .  A
C1535      C1540   1.408       .  A
C1536      C1537   1.397       .  A
C1536      H1545   1.084       .  S
C1537      C1538   1.404       .  A
C1537      H1546   1.083       .  S
C1538      C1541   1.482       .  S
C1538      C1539   1.403       .  A
C1539      C1540   1.402       .  A
C1539      H1547   1.083       .  S
C1540      H1548   1.082       .  S
C1541      H1549   1.087       .  S
C1541      C1542   1.341       .  D
C1542      H1550   1.087       .  S
C1543      H1551   1.085       .  S
C1543      C1544   1.346       .  D
C1544      H1552   1.086       .  S
C1553      C1561   1.485       .  S
C1553      C1554   1.404       .  A
C1553      C1558   1.406       .  A
C1554      C1555   1.398       .  A
C1554      H1563   1.084       .  S
C1555      C1556   1.408       .  A
C1555      H1564   1.080       .  S
C1556      C1559   1.488       .  S
C1556      C1557   1.405       .  A
C1557      C1558   1.396       .  A
C1557      H1565   1.083       .  S
C1558      H1566   1.080       .  S
C1559      H1567   1.087       .  S
C1559      C1560   1.349       .  D
C1560      H1568   1.083       .  S
C1561      H1569   1.084       .  S
C1561      C1562   1.347       .  D
C1562      H1570   1.084       .  S
C1571      C1579   1.491       .  S
C1571      C1572   1.405       .  A
C1571      C1576   1.407       .  A
C1572      C1573   1.402       .  A
C1572      H1581   1.083       .  S
C1573      C1574   1.407       .  A
C1573      H1582   1.082       .  S
C1574      C1577   1.489       .  S
C1574      C1575   1.405       .  A
C1575      C1576   1.399       .  A
C1575      H1583   1.083       .  S
C1576      H1584   1.082       .  S
C1577      H1585   1.085       .  S
C1577      C1578   1.350       .  D
C1578      H1586   1.085       .  S
C1579      H1587   1.087       .  S
C1579      C1580   1.347       .  D
C1580      H1588   1.085       .  S
C1589      C1597   1.485       .  S
C1589      C1590   1.401       .  A
C1589      C1594   1.409       .  A
C1590      C1591   1.397       .  A
C1590      H1599   1.084       .  S
C1591      C1592   1.410       .  A
C1591      H1600   1.081       .  S
C1592      C1595   1.488       .  S
C1592      C1593   1.403       .  A
C1593      C1594   1.399       .  A
C1593      H1601   1.083       .  S
C1594      H1602   1.082       .  S
C1595      H1603   1.085       .  S
C1595      C1596   1.344       .  D
C1596      H1604   1.084       .  S
C1597      H1605   1.087       .  S
C1597      C1598   1.343       .  D
C1598      H1606   1.085       .  S
C1607      C1615   1.499       .  S
C1607      C1608   1.406       .  A
C1607      C1612   1.409       .  A
C1608      C1609   1.406       .  A
C1608      H1617   1.083       .  S
C1609      C1610   1.410       .  A
C1609      H1618   1.081       .  S
C1610      C1613   1.497       .  S
C1610      C1611   1.404       .  A
C1611      C1612   1.400       .  A
C1611      H1619   1.083       .  S
C1612      H1620   1.081       .  S
C1613      H1621   1.087       .  S
C1613      C1614   1.350       .  D
C1614      H1622   1.084       .  S
C1615      H1623   1.084       .  S
C1615      C1616   1.352       .  D
C1616      H1624   1.086       .  S
C1625      C1633   1.483       .  S
C1625      C1626   1.403       .  A
C1625      C1630   1.406       .  A
C1626      C1627   1.399       .  A
C1626      H1635   1.083       .  S
C1627      C1628   1.408       .  A
C1627      H1636   1.081       .  S
C1628      C1631   1.484       .  S
C1628      C1629   1.403       .  A
C1629      C1630   1.396       .  A
C1629      H1637   1.084       .  S
C1630      H1638   1.082       .  S
C1631      H1639   1.084       .  S
C1631      C1632   1.345       .  D
C1632      H1640   1.085       .  S
C1633      H1641   1.087       .  S
C1633      C1634   1.345       .  D
C1634      H1642   1.086       .  S
C1643      C1651   1.494       .  S
C1643      C1644   1.410       .  A
C1643      C1648   1.404       .  A
C1644      C1645   1.401       .  A
C1644      H1653   1.080       .  S
C1645      C1646   1.408       .  A
C1645      H1654   1.081       .  S
C1646      C1649   1.492       .  S
C1646      C1647   1.405   1_556  A
C1647      C1648   1.400   1_554  A
C1647      H1655   1.083       .  S
C1648      H1656   1.083   1_556  S
C1649      H1657   1.085   1_556  S
C1649      C1650   1.349       .  D
C1650      H1658   1.085       .  S
C1651      H1659   1.086   1_556  S
C1651      C1652   1.348       .  D
C1652      H1660   1.084       .  S
C1661      C1669   1.484       .  S
C1661      C1662   1.403       .  A
C1661      C1666   1.408       .  A
C1662      C1663   1.396       .  A
C1662      H1671   1.083   1_565  S
C1663      C1664   1.406       .  A
C1663      H1672   1.083       .  S
C1664      C1667   1.483       .  S
C1664      C1665   1.402       .  A
C1665      C1666   1.400       .  A
C1665      H1673   1.083       .  S
C1666      H1674   1.082       .  S
C1667      H1675   1.087       .  S
C1667      C1668   1.342       .  D
C1668      H1676   1.086       .  S
C1669      H1677   1.087       .  S
C1669      C1670   1.348       .  D
C1670      H1678   1.085       .  S
C1679      C1687   1.484       .  S
C1679      C1680   1.404       .  A
C1679      C1684   1.407   1_565  A
C1680      C1681   1.399       .  A
C1680      H1689   1.083       .  S
C1681      C1682   1.406       .  A
C1681      H1690   1.082       .  S
C1682      C1685   1.480       .  S
C1682      C1683   1.402       .  A
C1683      C1684   1.395   1_565  A
C1683      H1691   1.084   1_565  S
C1684      H1692   1.081       .  S
C1685      H1693   1.083       .  S
C1685      C1686   1.344       .  D
C1686      H1694   1.086       .  S
C1687      H1695   1.087       .  S
C1687      C1688   1.345       .  D
C1688      H1696   1.085   1_565  S
C1697      C1705   1.484       .  S
C1697      C1698   1.404       .  A
C1697      C1702   1.405       .  A
C1698      C1699   1.399       .  A
C1698      H1707   1.083       .  S
C1699      C1700   1.406       .  A
C1699      H1708   1.082       .  S
C1700      C1703   1.484       .  S
C1700      C1701   1.404       .  A
C1701      C1702   1.398       .  A
C1701      H1709   1.083       .  S
C1702      H1710   1.082       .  S
C1703      H1711   1.087       .  S
C1703      C1704   1.351       .  D
C1704      H1712   1.085       .  S
C1705      H1713   1.087       .  S
C1705      C1706   1.347       .  D
C1706      H1714   1.085       .  S
C1715      C1723   1.492       .  S
C1715      C1716   1.403       .  A
C1715      C1720   1.409       .  A
C1716      C1717   1.403       .  A
C1716      H1725   1.083       .  S
C1717      C1718   1.411       .  A
C1717      H1726   1.081       .  S
C1718      C1721   1.492       .  S
C1718      C1719   1.402       .  A
C1719      C1720   1.398       .  A
C1719      H1727   1.084       .  S
C1720      H1728   1.082       .  S
C1721      H1729   1.087       .  S
C1721      C1722   1.346       .  D
C1722      H1730   1.085       .  S
C1723      H1731   1.086       .  S
C1723      C1724   1.347       .  D
C1724      H1732   1.088       .  S
C1733      C1741   1.494       .  S
C1733      C1734   1.403       .  A
C1733      C1738   1.410       .  A
C1734      C1735   1.398       .  A
C1734      H1743   1.083       .  S
C1735      C1736   1.410       .  A
C1735      H1744   1.081       .  S
C1736      C1739   1.498       .  S
C1736      C1737   1.405       .  A
C1737      C1738   1.405       .  A
C1737      H1745   1.083       .  S
C1738      H1746   1.081       .  S
C1739      H1747   1.086       .  S
C1739      C1740   1.350       .  D
C1740      H1748   1.085       .  S
C1741      H1749   1.082       .  S
C1741      C1742   1.350       .  D
C1742      H1750   1.085       .  S
C1751      C1759   1.489       .  S
C1751      C1752   1.402       .  A
C1751      C1756   1.411       .  A
C1752      C1753   1.397       .  A
C1752      H1761   1.083       .  S
C1753      C1754   1.408       .  A
C1753      H1762   1.082       .  S
C1754      C1757   1.486       .  S
C1754      C1755   1.400       .  A
C1755      C1756   1.399       .  A
C1755      H1763   1.083       .  S
C1756      H1764   1.081       .  S
C1757      H1765   1.087       .  S
C1757      C1758   1.341       .  D
C1758      H1766   1.086       .  S
C1759      H1767   1.085       .  S
C1759      C1760   1.343       .  D
C1760      H1768   1.084       .  S
C1769      C1777   1.489       .  S
C1769      C1770   1.405       .  A
C1769      C1774   1.407       .  A
C1770      C1771   1.397       .  A
C1770      H1779   1.083       .  S
C1771      C1772   1.402       .  A
C1771      H1780   1.083       .  S
C1772      C1775   1.490       .  S
C1772      C1773   1.410       .  A
C1773      C1774   1.401       .  A
C1773      H1781   1.081       .  S
C1774      H1782   1.080       .  S
C1775      H1783   1.087       .  S
C1775      C1776   1.345       .  D
C1776      H1784   1.084       .  S
C1777      H1785   1.084       .  S
C1777      C1778   1.349       .  D
C1778      H1786   1.083       .  S
C1787      C1795   1.491       .  S
C1787      C1788   1.405       .  A
C1787      C1792   1.409       .  A
C1788      C1789   1.397       .  A
C1788      H1797   1.084       .  S
C1789      C1790   1.407       .  A
C1789      H1798   1.081       .  S
C1790      C1793   1.489       .  S
C1790      C1791   1.404       .  A
C1791      C1792   1.400       .  A
C1791      H1799   1.083       .  S
C1792      H1800   1.080       .  S
C1793      H1801   1.087       .  S
C1793      C1794   1.348       .  D
C1794      H1802   1.084       .  S
C1795      H1803   1.085       .  S
C1795      C1796   1.348       .  D
C1796      H1804   1.084       .  S
C1805      C1813   1.483       .  S
C1805      C1806   1.404       .  A
C1805      C1810   1.405       .  A
C1806      C1807   1.401       .  A
C1806      H1815   1.083       .  S
C1807      C1808   1.408       .  A
C1807      H1816   1.082       .  S
C1808      C1811   1.483       .  S
C1808      C1809   1.402       .  A
C1809      C1810   1.395       .  A
C1809      H1817   1.084       .  S
C1810      H1818   1.083       .  S
C1811      H1819   1.081       .  S
C1811      C1812   1.346       .  D
C1812      H1820   1.085       .  S
C1813      H1821   1.087       .  S
C1813      C1814   1.344       .  D
C1814      H1822   1.086       .  S
C1823      C1831   1.487       .  S
C1823      C1824   1.400       .  A
C1823      C1828   1.409       .  A
C1824      C1825   1.397       .  A
C1824      H1833   1.084       .  S
C1825      C1826   1.412       .  A
C1825      H1834   1.080       .  S
C1826      C1829   1.492       .  S
C1826      C1827   1.403       .  A
C1827      C1828   1.400       .  A
C1827      H1835   1.083       .  S
C1828      H1836   1.082       .  S
C1829      H1837   1.083       .  S
C1829      C1830   1.347       .  D
C1830      H1838   1.085       .  S
C1831      H1839   1.087       .  S
C1831      C1832   1.342       .  D
C1832      H1840   1.085       .  S
C1841      C1849   1.482       .  S
C1841      C1842   1.406       .  A
C1841      C1846   1.405       .  A
C1842      C1843   1.396       .  A
C1842      H1851   1.081       .  S
C1843      C1844   1.407       .  A
C1843      H1852   1.082       .  S
C1844      C1847   1.482       .  S
C1844      C1845   1.401       .  A
C1845      C1846   1.398       .  A
C1845      H1853   1.083       .  S
C1846      H1854   1.083       .  S
C1847      H1855   1.086       .  S
C1847      C1848   1.344       .  D
C1848      H1856   1.086   1_655  S
C1849      H1857   1.086       .  S
C1849      C1850   1.346       .  D
C1850      H1858   1.085       .  S
C1859      C1867   1.481       .  S
C1859      C1860   1.403       .  A
C1859      C1864   1.405       .  A
C1860      C1861   1.398       .  A
C1860      H1869   1.083       .  S
C1861      C1862   1.406       .  A
C1861      H1870   1.082       .  S
C1862      C1865   1.481       .  S
C1862      C1863   1.403       .  A
C1863      C1864   1.395       .  A
C1863      H1871   1.084       .  S
C1864      H1872   1.082       .  S
C1865      H1873   1.086       .  S
C1865      C1866   1.345       .  D
C1866      H1874   1.085       .  S
C1867      H1875   1.087       .  S
C1867      C1868   1.345       .  D
C1868      H1876   1.085       .  S
C1877      C1885   1.484       .  S
C1877      C1878   1.402       .  A
C1877      C1882   1.407       .  A
C1878      C1879   1.398       .  A
C1878      H1887   1.084       .  S
C1879      C1880   1.406       .  A
C1879      H1888   1.083       .  S
C1880      C1883   1.488       .  S
C1880      C1881   1.405       .  A
C1881      C1882   1.405       .  A
C1881      H1889   1.083       .  S
C1882      H1890   1.083       .  S
C1883      H1891   1.086       .  S
C1883      C1884   1.344       .  D
C1884      H1892   1.087       .  S
C1885      H1893   1.087       .  S
C1885      C1886   1.345       .  D
C1886      H1894   1.086       .  S
C1895      C1903   1.490       .  S
C1895      C1896   1.406       .  A
C1895      C1900   1.408       .  A
C1896      C1897   1.397       .  A
C1896      H1905   1.084       .  S
C1897      C1898   1.401       .  A
C1897      H1906   1.083       .  S
C1898      C1901   1.490       .  S
C1898      C1899   1.410       .  A
C1899      C1900   1.401       .  A
C1899      H1907   1.081       .  S
C1900      H1908   1.080       .  S
C1901      H1909   1.087       .  S
C1901      C1902   1.343       .  D
C1902      H1910   1.085       .  S
C1903      H1911   1.085       .  S
C1903      C1904   1.349       .  D
C1904      H1912   1.083       .  S
C1913      C1921   1.481       .  S
C1913      C1914   1.401       .  A
C1913      C1918   1.408       .  A
C1914      C1915   1.395       .  A
C1914      H1923   1.084       .  S
C1915      C1916   1.406       .  A
C1915      H1924   1.082       .  S
C1916      C1919   1.480       .  S
C1916      C1917   1.402       .  A
C1917      C1918   1.397       .  A
C1917      H1925   1.083       .  S
C1918      H1926   1.082       .  S
C1919      H1927   1.087       .  S
C1919      C1920   1.344       .  D
C1920      H1928   1.086       .  S
C1921      H1929   1.083       .  S
C1921      C1922   1.343       .  D
C1922      H1930   1.086       .  S
C1931      C1939   1.476       .  S
C1931      C1932   1.400       .  A
C1931      C1936   1.408       .  A
C1932      C1933   1.394       .  A
C1932      H1941   1.084       .  S
C1933      C1934   1.406       .  A
C1933      H1942   1.083       .  S
C1934      C1937   1.474       .  S
C1934      C1935   1.400       .  A
C1935      C1936   1.396       .  A
C1935      H1943   1.083       .  S
C1936      H1944   1.082       .  S
C1937      H1945   1.087       .  S
C1937      C1938   1.341       .  D
C1938      H1946   1.087       .  S
C1939      H1947   1.085       .  S
C1939      C1940   1.341       .  D
C1940      H1948   1.086       .  S
C1949      C1957   1.484       .  S
C1949      C1950   1.403       .  A
C1949      C1954   1.407       .  A
C1950      C1951   1.398       .  A
C1950      H1959   1.083       .  S
C1951      C1952   1.405       .  A
C1951      H1960   1.082       .  S
C1952      C1955   1.480       .  S
C1952      C1953   1.402       .  A
C1953      C1954   1.398       .  A
C1953      H1961   1.083       .  S
C1954      H1962   1.082       .  S
C1955      H1963   1.086       .  S
C1955      C1956   1.344       .  D
C1956      H1964   1.086       .  S
C1957      H1965   1.087       .  S
C1957      C1958   1.346       .  D
C1958      H1966   1.085       .  S
C1967      C1975   1.486       .  S
C1967      C1968   1.403       .  A
C1967      C1972   1.406       .  A
C1968      C1969   1.399       .  A
C1968      H1977   1.084       .  S
C1969      C1970   1.408       .  A
C1969      H1978   1.080       .  S
C1970      C1973   1.489       .  S
C1970      C1971   1.405       .  A
C1971      C1972   1.398       .  A
C1971      H1979   1.084       .  S
C1972      H1980   1.082       .  S
C1973      H1981   1.085       .  S
C1973      C1974   1.348       .  D
C1974      H1982   1.084       .  S
C1975      H1983   1.087       .  S
C1975      C1976   1.347       .  D
C1976      H1984   1.085       .  S
C1985      C1993   1.496       .  S
C1985      C1986   1.405       .  A
C1985      C1990   1.409       .  A
C1986      C1987   1.405       .  A
C1986      H1995   1.083       .  S
C1987      C1988   1.410       .  A
C1987      H1996   1.082       .  S
C1988      C1991   1.496       .  S
C1988      C1989   1.404       .  A
C1989      C1990   1.403       .  A
C1989      H1997   1.083       .  S
C1990      H1998   1.082       .  S
C1991      H1999   1.087       .  S
C1991      C1992   1.348       .  D
C1992      H2000   1.086       .  S
C1993      H2001   1.086       .  S
C1993      C1994   1.350       .  D
C1994      H2002   1.087       .  S
C2003      C2011   1.482       .  S
C2003      C2004   1.401       .  A
C2003      C2008   1.406       .  A
C2004      C2005   1.401       .  A
C2004      H2013   1.083       .  S
C2005      C2006   1.410       .  A
C2005      H2014   1.082       .  S
C2006      C2009   1.484       .  S
C2006      C2007   1.401       .  A
C2007      C2008   1.396       .  A
C2007      H2015   1.084       .  S
C2008      H2016   1.083       .  S
C2009      H2017   1.085       .  S
C2009      C2010   1.343       .  D
C2010      H2018   1.086       .  S
C2011      H2019   1.086       .  S
C2011      C2012   1.342       .  D
C2012      H2020   1.088       .  S
C2021      C2029   1.494       .  S
C2021      C2022   1.408       .  A
C2021      C2026   1.406       .  A
C2022      C2023   1.405       .  A
C2022      H2031   1.083       .  S
C2023      C2024   1.407       .  A
C2023      H2032   1.081       .  S
C2024      C2027   1.492       .  S
C2024      C2025   1.406       .  A
C2025      C2026   1.396       .  A
C2025      H2033   1.084       .  S
C2026      H2034   1.080       .  S
C2027      H2035   1.084       .  S
C2027      C2028   1.352       .  D
C2028      H2036   1.084       .  S
C2029      H2037   1.087       .  S
C2029      C2030   1.352       .  D
C2030      H2038   1.084       .  S
C2039      C2047   1.493       .  S
C2039      C2040   1.404       .  A
C2039      C2044   1.411       .  A
C2040      C2041   1.398       .  A
C2040      H2049   1.083       .  S
C2041      C2042   1.406       .  A
C2041      H2050   1.083       .  S
C2042      C2045   1.488       .  S
C2042      C2043   1.403       .  A
C2043      C2044   1.404       .  A
C2043      H2051   1.083       .  S
C2044      H2052   1.081       .  S
C2045      H2053   1.086       .  S
C2045      C2046   1.345       .  D
C2046      H2054   1.087       .  S
C2047      H2055   1.088       .  S
C2047      C2048   1.352       .  D
C2048      H2056   1.085       .  S
C2057      C2065   1.487       .  S
C2057      C2058   1.403       .  A
C2057      C2062   1.407       .  A
C2058      C2059   1.400       .  A
C2058      H2067   1.083       .  S
C2059      C2060   1.408       .  A
C2059      H2068   1.082       .  S
C2060      C2063   1.487       .  S
C2060      C2061   1.403       .  A
C2061      C2062   1.398       .  A
C2061      H2069   1.084       .  S
C2062      H2070   1.082       .  S
C2063      H2071   1.084       .  S
C2063      C2064   1.346       .  D
C2064      H2072   1.085       .  S
C2065      H2073   1.086       .  S
C2065      C2066   1.345       .  D
C2066      H2074   1.086       .  S
C2075      C2083   1.492       .  S
C2075      C2076   1.406       .  A
C2075      C2080   1.408       .  A
C2076      C2077   1.399       .  A
C2076      H2085   1.083       .  S
C2077      C2078   1.407       .  A
C2077      H2086   1.081       .  S
C2078      C2081   1.489       .  S
C2078      C2079   1.404       .  A
C2079      C2080   1.399       .  A
C2079      H2087   1.084       .  S
C2080      H2088   1.079       .  S
C2081      H2089   1.083       .  S
C2081      C2082   1.349       .  D
C2082      H2090   1.084       .  S
C2083      H2091   1.086       .  S
C2083      C2084   1.350       .  D
C2084      H2092   1.082       .  S
C2093      C2101   1.490       .  S
C2093      C2094   1.404       .  A
C2093      C2098   1.408       .  A
C2094      C2095   1.399       .  A
C2094      H2103   1.083       .  S
C2095      C2096   1.407       .  A
C2095      H2104   1.082       .  S
C2096      C2099   1.491       .  S
C2096      C2097   1.404       .  A
C2097      C2098   1.401       .  A
C2097      H2105   1.083       .  S
C2098      H2106   1.081       .  S
C2099      H2107   1.087       .  S
C2099      C2100   1.347       .  D
C2100      H2108   1.085       .  S
C2101      H2109   1.084       .  S
C2101      C2102   1.348       .  D
C2102      H2110   1.085       .  S
C2111      C2119   1.495       .  S
C2111      C2112   1.410       .  A
C2111      C2116   1.404       .  A
C2112      C2113   1.403       .  A
C2112      H2121   1.081       .  S
C2113      C2114   1.410       .  A
C2113      H2122   1.080       .  S
C2114      C2117   1.496       .  S
C2114      C2115   1.405       .  A
C2115      C2116   1.400       .  A
C2115      H2123   1.083       .  S
C2116      H2124   1.084       .  S
C2117      H2125   1.087       .  S
C2117      C2118   1.349       .  D
C2118      H2126   1.084       .  S
C2119      H2127   1.083       .  S
C2119      C2120   1.350       .  D
C2120      H2128   1.085       .  S
C2129      C2137   1.487       .  S
C2129      C2130   1.402       .  A
C2129      C2134   1.408   1_554  A
C2130      C2131   1.400       .  A
C2130      H2139   1.083       .  S
C2131      C2132   1.409   1_554  A
C2131      H2140   1.082       .  S
C2132      C2135   1.487       .  S
C2132      C2133   1.403       .  A
C2133      C2134   1.398       .  A
C2133      H2141   1.083       .  S
C2134      H2142   1.083       .  S
C2135      H2143   1.087       .  S
C2135      C2136   1.346       .  D
C2136      H2144   1.085   1_556  S
C2137      H2145   1.087       .  S
C2137      C2138   1.342   1_554  D
C2138      H2146   1.086       .  S
C2147      C2155   1.488       .  S
C2147      C2148   1.403       .  A
C2147      C2152   1.409       .  A
C2148      C2149   1.393       .  A
C2148      H2157   1.084       .  S
C2149      C2150   1.406       .  A
C2149      H2158   1.082       .  S
C2150      C2153   1.491       .  S
C2150      C2151   1.406       .  A
C2151      C2152   1.406       .  A
C2151      H2159   1.083       .  S
C2152      H2160   1.081       .  S
C2153      H2161   1.086       .  S
C2153      C2154   1.346       .  D
C2154      H2162   1.086       .  S
C2155      H2163   1.084       .  S
C2155      C2156   1.349       .  D
C2156      H2164   1.084       .  S
C2165      C2173   1.493       .  S
C2165      C2166   1.404       .  A
C2165      C2170   1.409       .  A
C2166      C2167   1.399       .  A
C2166      H2175   1.083       .  S
C2167      C2168   1.407       .  A
C2167      H2176   1.082       .  S
C2168      C2171   1.495       .  S
C2168      C2169   1.407       .  A
C2169      C2170   1.407       .  A
C2169      H2177   1.083       .  S
C2170      H2178   1.082       .  S
C2171      H2179   1.087       .  S
C2171      C2172   1.349       .  D
C2172      H2180   1.086       .  S
C2173      H2181   1.087       .  S
C2173      C2174   1.352       .  D
C2174      H2182   1.085       .  S
C2183      C2191   1.481       .  S
C2183      C2184   1.402   1_556  A
C2183      C2188   1.405       .  A
C2184      C2185   1.397       .  A
C2184      H2193   1.084       .  S
C2185      C2186   1.409   1_554  A
C2185      H2194   1.080       .  S
C2186      C2189   1.487       .  S
C2186      C2187   1.405       .  A
C2187      C2188   1.397       .  A
C2187      H2195   1.083       .  S
C2188      H2196   1.082       .  S
C2189      H2197   1.084       .  S
C2189      C2190   1.347   1_556  D
C2190      H2198   1.083       .  S
C2191      H2199   1.087   1_556  S
C2191      C2192   1.345       .  D
C2192      H2200   1.086       .  S
C2201      C2209   1.490       .  S
C2201      C2202   1.405   1_655  A
C2201      C2206   1.406   1_554  A
C2202      C2203   1.402       .  A
C2202      H2211   1.084       .  S
C2203      C2204   1.408       .  A
C2203      H2212   1.080       .  S
C2204      C2207   1.489       .  S
C2204      C2205   1.405   1_454  A
C2205      C2206   1.395       .  A
C2205      H2213   1.083       .  S
C2206      H2214   1.081       .  S
C2207      H2215   1.085   1_554  S
C2207      C2208   1.349       .  D
C2208      H2216   1.083       .  S
C2209      H2217   1.087       .  S
C2209      C2210   1.346   1_554  D
C2210      H2218   1.085       .  S
C2219      C2227   1.488       .  S
C2219      C2220   1.402   1_455  A
C2219      C2224   1.409       .  A
C2220      C2221   1.400       .  A
C2220      H2229   1.083       .  S
C2221      C2222   1.410   1_655  A
C2221      H2230   1.081       .  S
C2222      C2225   1.485       .  S
C2222      C2223   1.400       .  A
C2223      C2224   1.396       .  A
C2223      H2231   1.084       .  S
C2224      H2232   1.081       .  S
C2225      H2233   1.085       .  S
C2225      C2226   1.343       .  D
C2226      H2234   1.085       .  S
C2227      H2235   1.086   1_455  S
C2227      C2228   1.344       .  D
C2228      H2236   1.085       .  S
C2237      C2245   1.495       .  S
C2237      C2238   1.405       .  A
C2237      C2242   1.409       .  A
C2238      C2239   1.402       .  A
C2238      H2247   1.083       .  S
C2239      C2240   1.408       .  A
C2239      H2248   1.082       .  S
C2240      C2243   1.493       .  S
C2240      C2241   1.404       .  A
C2241      C2242   1.402       .  A
C2241      H2249   1.083       .  S
C2242      H2250   1.081       .  S
C2243      H2251   1.087       .  S
C2243      C2244   1.348       .  D
C2244      H2252   1.085       .  S
C2245      H2253   1.084       .  S
C2245      C2246   1.351       .  D
C2246      H2254   1.085       .  S
C2255      C2263   1.492       .  S
C2255      C2256   1.404       .  A
C2255      C2260   1.408       .  A
C2256      C2257   1.403       .  A
C2256      H2265   1.083       .  S
C2257      C2258   1.410       .  A
C2257      H2266   1.081       .  S
C2258      C2261   1.493       .  S
C2258      C2259   1.404       .  A
C2259      C2260   1.399       .  A
C2259      H2267   1.084       .  S
C2260      H2268   1.082       .  S
C2261      H2269   1.085       .  S
C2261      C2262   1.351       .  D
C2262      H2270   1.085       .  S
C2263      H2271   1.087       .  S
C2263      C2264   1.346       .  D
C2264      H2272   1.085       .  S
C2273      C2281   1.484       .  S
C2273      C2274   1.401       .  A
C2273      C2278   1.409       .  A
C2274      C2275   1.395   1_545  A
C2274      H2283   1.084       .  S
C2275      C2276   1.408       .  A
C2275      H2284   1.082       .  S
C2276      C2279   1.483       .  S
C2276      C2277   1.401       .  A
C2277      C2278   1.398   1_565  A
C2277      H2285   1.084       .  S
C2278      H2286   1.081       .  S
C2279      H2287   1.087       .  S
C2279      C2280   1.341       .  D
C2280      H2288   1.087   1_565  S
C2281      H2289   1.086       .  S
C2281      C2282   1.341       .  D
C2282      H2290   1.085   1_545  S
C2291      C2299   1.477       .  S
C2291      C2292   1.401       .  A
C2291      C2296   1.404   1_545  A
C2292      C2293   1.399       .  A
C2292      H2301   1.083       .  S
C2293      C2294   1.409       .  A
C2293      H2302   1.081       .  S
C2294      C2297   1.479       .  S
C2294      C2295   1.402       .  A
C2295      C2296   1.390   1_545  A
C2295      H2303   1.084   1_545  S
C2296      H2304   1.083       .  S
C2297      H2305   1.084       .  S
C2297      C2298   1.344       .  D
C2298      H2306   1.084       .  S
C2299      H2307   1.087   1_545  S
C2299      C2300   1.340       .  D
C2300      H2308   1.087       .  S
C2309      C2317   1.485       .  S
C2309      C2310   1.400       .  A
C2309      C2314   1.411       .  A
C2310      C2311   1.395       .  A
C2310      H2319   1.083       .  S
C2311      C2312   1.409       .  A
C2311      H2320   1.082       .  S
C2312      C2315   1.483       .  S
C2312      C2313   1.400       .  A
C2313      C2314   1.399       .  A
C2313      H2321   1.083       .  S
C2314      H2322   1.081       .  S
C2315      H2323   1.086       .  S
C2315      C2316   1.341       .  D
C2316      H2324   1.086       .  S
C2317      H2325   1.087       .  S
C2317      C2318   1.341       .  D
C2318      H2326   1.084       .  S
C2327      C2335   1.486       .  S
C2327      C2328   1.403       .  A
C2327      C2332   1.409       .  A
C2328      C2329   1.399       .  A
C2328      H2337   1.083       .  S
C2329      C2330   1.407       .  A
C2329      H2338   1.083       .  S
C2330      C2333   1.481       .  S
C2330      C2331   1.400       .  A
C2331      C2332   1.397       .  A
C2331      H2339   1.084       .  S
C2332      H2340   1.082       .  S
C2333      H2341   1.087       .  S
C2333      C2334   1.344       .  D
C2334      H2342   1.086       .  S
C2335      H2343   1.086       .  S
C2335      C2336   1.348       .  D
C2336      H2344   1.087       .  S
C2345      C2353   1.488       .  S
C2345      C2346   1.402       .  A
C2345      C2350   1.409       .  A
C2346      C2347   1.398       .  A
C2346      H2355   1.083       .  S
C2347      C2348   1.408       .  A
C2347      H2356   1.082       .  S
C2348      C2351   1.485       .  S
C2348      C2349   1.401       .  A
C2349      C2350   1.398       .  A
C2349      H2357   1.084   1_556  S
C2350      H2358   1.082   1_556  S
C2351      H2359   1.087       .  S
C2351      C2352   1.342       .  D
C2352      H2360   1.086       .  S
C2353      H2361   1.085       .  S
C2353      C2354   1.344       .  D
C2354      H2362   1.084       .  S
C2363      C2371   1.483       .  S
C2363      C2364   1.403       .  A
C2363      C2368   1.406       .  A
C2364      C2365   1.399       .  A
C2364      H2373   1.083       .  S
C2365      C2366   1.407       .  A
C2365      H2374   1.081       .  S
C2366      C2369   1.483       .  S
C2366      C2367   1.403       .  A
C2367      C2368   1.394       .  A
C2367      H2375   1.084       .  S
C2368      H2376   1.082       .  S
C2369      H2377   1.082       .  S
C2369      C2370   1.344       .  D
C2370      H2378   1.085       .  S
C2371      H2379   1.087       .  S
C2371      C2372   1.345       .  D
C2372      H2380   1.085       .  S
C2381      C2389   1.489       .  S
C2381      C2382   1.405   1_455  A
C2381      C2386   1.407       .  A
C2382      C2383   1.399       .  A
C2382      H2391   1.083       .  S
C2383      C2384   1.407   1_655  A
C2383      H2392   1.080       .  S
C2384      C2387   1.489       .  S
C2384      C2385   1.405       .  A
C2385      C2386   1.398       .  A
C2385      H2393   1.083       .  S
C2386      H2394   1.081       .  S
C2387      H2395   1.081       .  S
C2387      C2388   1.349   1_455  D
C2388      H2396   1.084       .  S
C2389      H2397   1.087       .  S
C2389      C2390   1.349       .  D
C2390      H2398   1.084       .  S
C2399      C2407   1.493       .  S
C2399      C2400   1.406   1_455  A
C2399      C2404   1.409       .  A
C2400      C2401   1.402       .  A
C2400      H2409   1.083       .  S
C2401      C2402   1.407   1_655  A
C2401      H2410   1.082       .  S
C2402      C2405   1.488       .  S
C2402      C2403   1.403       .  A
C2403      C2404   1.398       .  A
C2403      H2411   1.084       .  S
C2404      H2412   1.081       .  S
C2405      H2413   1.085       .  S
C2405      C2406   1.348   1_455  D
C2406      H2414   1.085       .  S
C2407      H2415   1.087   1_455  S
C2407      C2408   1.348       .  D
C2408      H2416   1.084       .  S
C2417      C2425   1.485       .  S
C2417      C2418   1.403       .  A
C2417      C2422   1.406       .  A
C2418      C2419   1.396       .  A
C2418      H2427   1.084       .  S
C2419      C2420   1.406       .  A
C2419      H2428   1.081       .  S
C2420      C2423   1.488       .  S
C2420      C2421   1.406       .  A
C2421      C2422   1.400       .  A
C2421      H2429   1.083       .  S
C2422      H2430   1.081       .  S
C2423      H2431   1.081       .  S
C2423      C2424   1.349       .  D
C2424      H2432   1.083       .  S
C2425      H2433   1.087       .  S
C2425      C2426   1.349       .  D
C2426      H2434   1.085       .  S
C2435      C2443   1.489       .  S
C2435      C2436   1.403       .  A
C2435      C2440   1.408       .  A
C2436      C2437   1.399       .  A
C2436      H2445   1.084       .  S
C2437      C2438   1.410       .  A
C2437      H2446   1.081       .  S
C2438      C2441   1.493       .  S
C2438      C2439   1.404       .  A
C2439      C2440   1.401       .  A
C2439      H2447   1.084       .  S
C2440      H2448   1.082       .  S
C2441      H2449   1.087       .  S
C2441      C2442   1.349       .  D
C2442      H2450   1.086       .  S
C2443      H2451   1.087       .  S
C2443      C2444   1.347       .  D
C2444      H2452   1.085       .  S
C2453      C2461   1.488       .  S
C2453      C2454   1.405       .  A
C2453      C2458   1.407       .  A
C2454      C2455   1.400       .  A
C2454      H2463   1.084       .  S
C2455      C2456   1.406       .  A
C2455      H2464   1.082       .  S
C2456      C2459   1.489       .  S
C2456      C2457   1.405       .  A
C2457      C2458   1.400       .  A
C2457      H2465   1.083       .  S
C2458      H2466   1.081       .  S
C2459      H2467   1.087       .  S
C2459      C2460   1.352       .  D
C2460      H2468   1.085       .  S
C2461      H2469   1.088       .  S
C2461      C2462   1.348       .  D
C2462      H2470   1.085       .  S
C2471      C2479   1.497       .  S
C2471      C2472   1.405       .  A
C2471      C2476   1.409       .  A
C2472      C2473   1.402       .  A
C2472      H2481   1.083       .  S
C2473      C2474   1.410       .  A
C2473      H2482   1.080       .  S
C2474      C2477   1.499       .  S
C2474      C2475   1.406       .  A
C2475      C2476   1.403       .  A
C2475      H2483   1.083       .  S
C2476      H2484   1.081       .  S
C2477      H2485   1.082       .  S
C2477      C2478   1.352       .  D
C2478      H2486   1.084       .  S
C2479      H2487   1.084       .  S
C2479      C2480   1.354       .  D
C2480      H2488   1.084       .  S
C2489      C2497   1.489       .  S
C2489      C2490   1.402       .  A
C2489      C2494   1.409       .  A
C2490      C2491   1.401       .  A
C2490      H2499   1.083       .  S
C2491      C2492   1.411       .  A
C2491      H2500   1.081       .  S
C2492      C2495   1.491       .  S
C2492      C2493   1.402       .  A
C2493      C2494   1.399       .  A
C2493      H2501   1.083       .  S
C2494      H2502   1.082       .  S
C2495      H2503   1.085       .  S
C2495      C2496   1.348       .  D
C2496      H2504   1.087       .  S
C2497      H2505   1.086       .  S
C2497      C2498   1.344       .  D
C2498      H2506   1.086       .  S
C2507      C2515   1.483       .  S
C2507      C2508   1.403   1_556  A
C2507      C2512   1.406       .  A
C2508      C2509   1.397       .  A
C2508      H2517   1.084       .  S
C2509      C2510   1.406   1_554  A
C2509      H2518   1.081       .  S
C2510      C2513   1.485       .  S
C2510      C2511   1.404       .  A
C2511      C2512   1.399       .  A
C2511      H2519   1.083       .  S
C2512      H2520   1.082       .  S
C2513      H2521   1.087       .  S
C2513      C2514   1.347   1_556  D
C2514      H2522   1.085       .  S
C2515      H2523   1.083   1_556  S
C2515      C2516   1.345       .  D
C2516      H2524   1.085       .  S
C2525      C2533   1.484       .  S
C2525      C2526   1.402       .  A
C2525      C2530   1.408       .  A
C2526      C2527   1.398       .  A
C2526      H2535   1.084       .  S
C2527      C2528   1.407       .  A
C2527      H2536   1.082       .  S
C2528      C2531   1.484       .  S
C2528      C2529   1.402       .  A
C2529      C2530   1.398       .  A
C2529      H2537   1.083       .  S
C2530      H2538   1.082       .  S
C2531      H2539   1.087       .  S
C2531      C2532   1.344       .  D
C2532      H2540   1.086       .  S
C2533      H2541   1.083       .  S
C2533      C2534   1.345       .  D
C2534      H2542   1.086   1_554  S
C2543      C2551   1.488       .  S
C2543      C2544   1.405   1_554  A
C2543      C2548   1.407       .  A
C2544      C2545   1.397       .  A
C2544      H2553   1.084       .  S
C2545      C2546   1.406   1_556  A
C2545      H2554   1.081       .  S
C2546      C2549   1.488       .  S
C2546      C2547   1.405       .  A
C2547      C2548   1.400       .  A
C2547      H2555   1.083       .  S
C2548      H2556   1.080       .  S
C2549      H2557   1.087       .  S
C2549      C2550   1.350   1_554  D
C2550      H2558   1.084       .  S
C2551      H2559   1.085   1_554  S
C2551      C2552   1.349       .  D
C2552      H2560   1.084       .  S
C2561      C2569   1.485       .  S
C2561      C2562   1.403       .  A
C2561      C2566   1.409       .  A
C2562      C2563   1.393       .  A
C2562      H2571   1.084       .  S
C2563      C2564   1.405       .  A
C2563      H2572   1.082       .  S
C2564      C2567   1.484       .  S
C2564      C2565   1.403       .  A
C2565      C2566   1.401       .  A
C2565      H2573   1.083       .  S
C2566      H2574   1.080       .  S
C2567      H2575   1.087       .  S
C2567      C2568   1.344       .  D
C2568      H2576   1.086       .  S
C2569      H2577   1.083       .  S
C2569      C2570   1.346       .  D
C2570      H2578   1.084       .  S
C2579      C2587   1.487       .  S
C2579      C2580   1.404       .  A
C2579      C2584   1.405   1_554  A
C2580      C2581   1.402       .  A
C2580      H2589   1.083       .  S
C2581      C2582   1.409       .  A
C2581      H2590   1.080       .  S
C2582      C2585   1.489   1_554  S
C2582      C2583   1.405   1_554  A
C2583      C2584   1.396       .  A
C2583      H2591   1.084       .  S
C2584      H2592   1.082       .  S
C2585      H2593   1.082       .  S
C2585      C2586   1.349   1_556  D
C2586      H2594   1.083       .  S
C2587      H2595   1.087       .  S
C2587      C2588   1.346   1_554  D
C2588      H2596   1.085       .  S
C2597      C2605   1.486       .  S
C2597      C2598   1.405   1_556  A
C2597      C2602   1.405       .  A
C2598      C2599   1.400       .  A
C2598      H2607   1.083       .  S
C2599      C2600   1.408   1_554  A
C2599      H2608   1.080       .  S
C2600      C2603   1.489       .  S
C2600      C2601   1.405       .  A
C2601      C2602   1.396       .  A
C2601      H2609   1.084       .  S
C2602      H2610   1.081       .  S
C2603      H2611   1.085       .  S
C2603      C2604   1.348   1_556  D
C2604      H2612   1.082       .  S
C2605      H2613   1.087   1_556  S
C2605      C2606   1.349       .  D
C2606      H2614   1.084       .  S
C2615      C2623   1.491       .  S
C2615      C2616   1.402       .  A
C2615      C2620   1.410       .  A
C2616      C2617   1.399       .  A
C2616      H2625   1.083       .  S
C2617      C2618   1.410       .  A
C2617      H2626   1.081       .  S
C2618      C2621   1.491       .  S
C2618      C2619   1.402       .  A
C2619      C2620   1.400       .  A
C2619      H2627   1.083       .  S
C2620      H2628   1.081       .  S
C2621      H2629   1.087       .  S
C2621      C2622   1.344       .  D
C2622      H2630   1.084       .  S
C2623      H2631   1.087       .  S
C2623      C2624   1.348       .  D
C2624      H2632   1.085       .  S
C2633      C2641   1.482       .  S
C2633      C2634   1.402       .  A
C2633      C2638   1.405       .  A
C2634      C2635   1.399       .  A
C2634      H2643   1.083       .  S
C2635      C2636   1.408       .  A
C2635      H2644   1.081       .  S
C2636      C2639   1.485       .  S
C2636      C2637   1.404       .  A
C2637      C2638   1.396       .  A
C2637      H2645   1.084       .  S
C2638      H2646   1.082       .  S
C2639      H2647   1.081       .  S
C2639      C2640   1.347       .  D
C2640      H2648   1.084       .  S
C2641      H2649   1.087       .  S
C2641      C2642   1.343       .  D
C2642      H2650   1.086       .  S
C2651      C2659   1.488       .  S
C2651      C2652   1.405       .  A
C2651      C2656   1.407       .  A
C2652      C2653   1.399       .  A
C2652      H2661   1.084       .  S
C2653      C2654   1.406       .  A
C2653      H2662   1.082       .  S
C2654      C2657   1.488       .  S
C2654      C2655   1.406       .  A
C2655      C2656   1.402       .  A
C2655      H2663   1.083       .  S
C2656      H2664   1.082       .  S
C2657      H2665   1.085       .  S
C2657      C2658   1.348       .  D
C2658      H2666   1.086       .  S
C2659      H2667   1.087       .  S
C2659      C2660   1.349       .  D
C2660      H2668   1.085       .  S
C2669      C2677   1.494       .  S
C2669      C2670   1.405       .  A
C2669      C2674   1.409       .  A
C2670      C2671   1.400       .  A
C2670      H2679   1.083       .  S
C2671      C2672   1.407       .  A
C2671      H2680   1.082       .  S
C2672      C2675   1.493       .  S
C2672      C2673   1.405       .  A
C2673      C2674   1.404       .  A
C2673      H2681   1.083       .  S
C2674      H2682   1.081       .  S
C2675      H2683   1.087       .  S
C2675      C2676   1.349       .  D
C2676      H2684   1.085       .  S
C2677      H2685   1.087       .  S
C2677      C2678   1.353       .  D
C2678      H2686   1.085       .  S
C2687      C2695   1.487       .  S
C2687      C2688   1.404       .  A
C2687      C2692   1.408       .  A
C2688      C2689   1.398       .  A
C2688      H2697   1.083       .  S
C2689      C2690   1.406       .  A
C2689      H2698   1.082       .  S
C2690      C2693   1.486       .  S
C2690      C2691   1.403       .  A
C2691      C2692   1.399       .  A
C2691      H2699   1.083       .  S
C2692      H2700   1.081       .  S
C2693      H2701   1.087       .  S
C2693      C2694   1.346       .  D
C2694      H2702   1.085       .  S
C2695      H2703   1.082       .  S
C2695      C2696   1.347       .  D
C2696      H2704   1.084       .  S
C2705      C2713   1.487       .  S
C2705      C2706   1.404       .  A
C2705      C2710   1.408       .  A
C2706      C2707   1.398       .  A
C2706      H2715   1.083       .  S
C2707      C2708   1.407       .  A
C2707      H2716   1.082       .  S
C2708      C2711   1.489       .  S
C2708      C2709   1.404       .  A
C2709      C2710   1.401       .  A
C2709      H2717   1.083       .  S
C2710      H2718   1.082       .  S
C2711      H2719   1.087       .  S
C2711      C2712   1.346       .  D
C2712      H2720   1.085       .  S
C2713      H2721   1.083       .  S
C2713      C2714   1.347       .  D
C2714      H2722   1.085       .  S
C2723      C2731   1.491       .  S
C2723      C2724   1.404       .  A
C2723      C2728   1.409       .  A
C2724      C2725   1.397       .  A
C2724      H2733   1.084       .  S
C2725      C2726   1.406       .  A
C2725      H2734   1.082       .  S
C2726      C2729   1.490       .  S
C2726      C2727   1.405       .  A
C2727      C2728   1.403       .  A
C2727      H2735   1.083       .  S
C2728      H2736   1.080       .  S
C2729      H2737   1.087       .  S
C2729      C2730   1.348       .  D
C2730      H2738   1.085       .  S
C2731      H2739   1.085       .  S
C2731      C2732   1.349       .  D
C2732      H2740   1.084       .  S
C2741      C2749   1.483       .  S
C2741      C2742   1.402       .  A
C2741      C2746   1.408       .  A
C2742      C2743   1.397       .  A
C2742      H2751   1.084       .  S
C2743      C2744   1.408       .  A
C2743      H2752   1.082       .  S
C2744      C2747   1.483       .  S
C2744      C2745   1.402       .  A
C2745      C2746   1.396       .  A
C2745      H2753   1.083       .  S
C2746      H2754   1.082       .  S
C2747      H2755   1.087       .  S
C2747      C2748   1.344       .  D
C2748      H2756   1.085       .  S
C2749      H2757   1.082       .  S
C2749      C2750   1.344       .  D
C2750      H2758   1.085       .  S
C2759      C2767   1.489       .  S
C2759      C2760   1.405       .  A
C2759      C2764   1.406       .  A
C2760      C2761   1.402       .  A
C2760      H2769   1.083       .  S
C2761      C2762   1.407       .  A
C2761      H2770   1.081       .  S
C2762      C2765   1.488       .  S
C2762      C2763   1.405       .  A
C2763      C2764   1.397       .  A
C2763      H2771   1.083       .  S
C2764      H2772   1.082       .  S
C2765      H2773   1.083       .  S
C2765      C2766   1.348       .  D
C2766      H2774   1.085       .  S
C2767      H2775   1.087       .  S
C2767      C2768   1.346       .  D
C2768      H2776   1.085       .  S
C2777      C2785   1.488       .  S
C2777      C2778   1.403       .  A
C2777      C2782   1.407       .  A
C2778      C2779   1.400       .  A
C2778      H2787   1.083       .  S
C2779      C2780   1.409       .  A
C2779      H2788   1.081       .  S
C2780      C2783   1.490       .  S
C2780      C2781   1.404       .  A
C2781      C2782   1.398       .  A
C2781      H2789   1.083       .  S
C2782      H2790   1.082       .  S
C2783      H2791   1.084       .  S
C2783      C2784   1.347       .  D
C2784      H2792   1.084       .  S
C2785      H2793   1.087       .  S
C2785      C2786   1.347       .  D
C2786      H2794   1.085       .  S
C2795      C2803   1.489       .  S
C2795      C2796   1.409       .  A
C2795      C2800   1.403       .  A
C2796      C2797   1.406       .  A
C2796      H2805   1.082       .  S
C2797      C2798   1.409       .  A
C2797      H2806   1.082       .  S
C2798      C2801   1.488       .  S
C2798      C2799   1.402       .  A
C2799      C2800   1.396       .  A
C2799      H2807   1.084       .  S
C2800      H2808   1.084       .  S
C2801      H2809   1.087       .  S
C2801      C2802   1.347       .  D
C2802      H2810   1.086       .  S
C2803      H2811   1.084       .  S
C2803      C2804   1.354       .  D
C2804      H2812   1.085       .  S
C2813      C2821   1.486       .  S
C2813      C2814   1.403       .  A
C2813      C2818   1.408       .  A
C2814      C2815   1.398       .  A
C2814      H2823   1.083       .  S
C2815      C2816   1.407       .  A
C2815      H2824   1.083       .  S
C2816      C2819   1.485       .  S
C2816      C2817   1.402       .  A
C2817      C2818   1.400       .  A
C2817      H2825   1.083       .  S
C2818      H2826   1.082       .  S
C2819      H2827   1.086       .  S
C2819      C2820   1.344       .  D
C2820      H2828   1.086       .  S
C2821      H2829   1.087       .  S
C2821      C2822   1.347       .  D
C2822      H2830   1.086       .  S
C2831      C2839   1.491       .  S
C2831      C2832   1.405       .  A
C2831      C2836   1.407       .  A
C2832      C2833   1.403       .  A
C2832      H2841   1.083       .  S
C2833      C2834   1.409       .  A
C2833      H2842   1.081       .  S
C2834      C2837   1.491       .  S
C2834      C2835   1.405       .  A
C2835      C2836   1.397       .  A
C2835      H2843   1.084       .  S
C2836      H2844   1.081       .  S
C2837      H2845   1.085       .  S
C2837      C2838   1.349       .  D
C2838      H2846   1.084       .  S
C2839      H2847   1.087       .  S
C2839      C2840   1.348       .  D
C2840      H2848   1.085       .  S
C2849      C2857   1.485   1_545  S
C2849      C2850   1.404   1_645  A
C2849      C2854   1.406       .  A
C2850      C2851   1.399   1_565  A
C2850      H2859   1.083       .  S
C2851      C2852   1.407   1_455  A
C2851      H2860   1.081   1_545  S
C2852      C2855   1.487       .  S
C2852      C2853   1.405       .  A
C2853      C2854   1.399       .  A
C2853      H2861   1.083       .  S
C2854      H2862   1.082       .  S
C2855      H2863   1.086   1_545  S
C2855      C2856   1.347   1_655  D
C2856      H2864   1.085       .  S
C2857      H2865   1.087   1_655  S
C2857      C2858   1.348   1_565  D
C2858      H2866   1.085       .  S
C2867      C2875   1.485       .  S
C2867      C2868   1.402       .  A
C2867      C2872   1.408   1_565  A
C2868      C2869   1.398       .  A
C2868      H2877   1.084       .  S
C2869      C2870   1.409       .  A
C2869      H2878   1.081       .  S
C2870      C2873   1.486       .  S
C2870      C2871   1.402   1_565  A
C2871      C2872   1.396       .  A
C2871      H2879   1.083       .  S
C2872      H2880   1.081       .  S
C2873      H2881   1.087   1_565  S
C2873      C2874   1.345       .  D
C2874      H2882   1.084       .  S
C2875      H2883   1.084       .  S
C2875      C2876   1.344   1_565  D
C2876      H2884   1.085       .  S
C2885      C2893   1.490       .  S
C2885      C2886   1.404       .  A
C2885      C2890   1.407   1_455  A
C2886      C2887   1.400       .  A
C2886      H2895   1.083       .  S
C2887      C2888   1.409       .  A
C2887      H2896   1.080       .  S
C2888      C2891   1.492       .  S
C2888      C2889   1.405   1_455  A
C2889      C2890   1.399       .  A
C2889      H2897   1.083       .  S
C2890      H2898   1.081       .  S
C2891      H2899   1.082   1_455  S
C2891      C2892   1.350       .  D
C2892      H2900   1.083       .  S
C2893      H2901   1.087       .  S
C2893      C2894   1.349       .  D
C2894      H2902   1.085   1_455  S
C2903      C2911   1.490       .  S
C2903      C2904   1.403       .  A
C2903      C2908   1.409       .  A
C2904      C2905   1.401       .  A
C2904      H2913   1.083       .  S
C2905      C2906   1.410       .  A
C2905      H2914   1.081       .  S
C2906      C2909   1.489       .  S
C2906      C2907   1.402       .  A
C2907      C2908   1.397       .  A
C2907      H2915   1.084       .  S
C2908      H2916   1.082       .  S
C2909      H2917   1.085       .  S
C2909      C2910   1.349       .  D
C2910      H2918   1.086       .  S
C2911      H2919   1.087       .  S
C2911      C2912   1.345       .  D
C2912      H2920   1.085       .  S
C2921      C2929   1.487       .  S
C2921      C2922   1.409       .  A
C2921      C2926   1.401       .  A
C2922      C2923   1.400       .  A
C2922      H2931   1.081       .  S
C2923      C2924   1.408       .  A
C2923      H2932   1.080       .  S
C2924      C2927   1.488       .  S
C2924      C2925   1.405       .  A
C2925      C2926   1.395       .  A
C2925      H2933   1.084       .  S
C2926      H2934   1.083       .  S
C2927      H2935   1.085       .  S
C2927      C2928   1.348       .  D
C2928      H2936   1.083       .  S
C2929      H2937   1.087       .  S
C2929      C2930   1.345       .  D
C2930      H2938   1.084       .  S
C2939      C2947   1.485       .  S
C2939      C2940   1.404       .  A
C2939      C2944   1.405       .  A
C2940      C2941   1.400       .  A
C2940      H2949   1.083       .  S
C2941      C2942   1.408       .  A
C2941      H2950   1.081       .  S
C2942      C2945   1.486       .  S
C2942      C2943   1.404       .  A
C2943      C2944   1.396       .  A
C2943      H2951   1.084       .  S
C2944      H2952   1.081       .  S
C2945      H2953   1.086       .  S
C2945      C2946   1.347       .  D
C2946      H2954   1.084       .  S
C2947      H2955   1.087       .  S
C2947      C2948   1.347       .  D
C2948      H2956   1.085       .  S
C2957      C2965   1.493       .  S
C2957      C2958   1.403       .  A
C2957      C2962   1.410       .  A
C2958      C2959   1.401       .  A
C2958      H2967   1.083       .  S
C2959      C2960   1.411       .  A
C2959      H2968   1.081       .  S
C2960      C2963   1.493       .  S
C2960      C2961   1.402       .  A
C2961      C2962   1.399       .  A
C2961      H2969   1.083       .  S
C2962      H2970   1.081       .  S
C2963      H2971   1.085       .  S
C2963      C2964   1.345       .  D
C2964      H2972   1.083       .  S
C2965      H2973   1.087       .  S
C2965      C2966   1.345       .  D
C2966      H2974   1.085       .  S
C2975      C2983   1.494       .  S
C2975      C2976   1.405       .  A
C2975      C2980   1.408       .  A
C2976      C2977   1.404       .  A
C2976      H2985   1.083       .  S
C2977      C2978   1.409       .  A
C2977      H2986   1.081       .  S
C2978      C2981   1.494       .  S
C2978      C2979   1.405       .  A
C2979      C2980   1.400       .  A
C2979      H2987   1.083       .  S
C2980      H2988   1.082       .  S
C2981      H2989   1.087       .  S
C2981      C2982   1.351       .  D
C2982      H2990   1.084       .  S
C2983      H2991   1.087       .  S
C2983      C2984   1.350       .  D
C2984      H2992   1.087       .  S
C2993      C3001   1.487   1_545  S
C2993      C2994   1.402   1_545  A
C2993      C2998   1.409       .  A
C2994      C2995   1.399       .  A
C2994      H3003   1.083       .  S
C2995      C2996   1.408   1_565  A
C2995      H3004   1.082       .  S
C2996      C2999   1.488       .  S
C2996      C2997   1.403       .  A
C2997      C2998   1.400       .  A
C2997      H3005   1.083       .  S
C2998      H3006   1.082       .  S
C2999      H3007   1.085       .  S
C2999      C3000   1.345   1_545  D
C3000      H3008   1.085       .  S
C3001      H3009   1.087       .  S
C3001      C3002   1.345   1_565  D
C3002      H3010   1.086   1_554  S
C3011      C3019   1.486       .  S
C3011      C3012   1.402   1_565  A
C3011      C3016   1.408       .  A
C3012      C3013   1.398       .  A
C3012      H3021   1.084       .  S
C3013      C3014   1.409   1_545  A
C3013      H3022   1.081       .  S
C3014      C3017   1.487       .  S
C3014      C3015   1.403       .  A
C3015      C3016   1.398       .  A
C3015      H3023   1.084       .  S
C3016      H3024   1.081       .  S
C3017      H3025   1.083       .  S
C3017      C3018   1.345   1_565  D
C3018      H3026   1.085       .  S
C3019      H3027   1.087   1_565  S
C3019      C3020   1.346       .  D
C3020      H3028   1.085       .  S
C3029      C3037   1.493       .  S
C3029      C3030   1.405       .  A
C3029      C3034   1.407   1_554  A
C3030      C3031   1.402       .  A
C3030      H3039   1.083       .  S
C3031      C3032   1.409       .  A
C3031      H3040   1.080       .  S
C3032      C3035   1.492   1_554  S
C3032      C3033   1.404   1_554  A
C3033      C3034   1.398       .  A
C3033      H3041   1.084       .  S
C3034      H3042   1.081       .  S
C3035      H3043   1.083       .  S
C3035      C3036   1.349   1_556  D
C3036      H3044   1.084       .  S
C3037      H3045   1.087       .  S
C3037      C3038   1.350   1_554  D
C3038      H3046   1.084       .  S
C3047      C3055   1.491       .  S
C3047      C3048   1.403       .  A
C3047      C3052   1.410       .  A
C3048      C3049   1.400       .  A
C3048      H3057   1.083       .  S
C3049      C3050   1.409       .  A
C3049      H3058   1.082       .  S
C3050      C3053   1.490       .  S
C3050      C3051   1.402       .  A
C3051      C3052   1.400       .  A
C3051      H3059   1.083       .  S
C3052      H3060   1.082       .  S
C3053      H3061   1.087       .  S
C3053      C3054   1.345       .  D
C3054      H3062   1.086       .  S
C3055      H3063   1.083       .  S
C3055      C3056   1.348       .  D
C3056      H3064   1.087       .  S
