geometry optimzed in LAMMPS
_audit_creation_date              2020-12-01 
_audit_creation_method            'lammps2cif' 
_symmetry_space_group_name_H-M    'P1' 
_symmetry_Int_Tables_number       1 
_symmetry_cell_setting            triclinic 
loop_ 
_symmetry_equiv_pos_as_xyz 
  x,y,z 
_cell_length_a                    48.06587547 
_cell_length_b                    48.04277346089315 
_cell_length_c                    43.66495927218625 
_cell_angle_alpha                 90.23431453654945 
_cell_angle_beta                  89.41504528344433 
_cell_angle_gamma                 91.36572464628631 
loop_ 
_atom_site_label 
_atom_site_type_symbol 
_atom_site_fract_x 
_atom_site_fract_y 
_atom_site_fract_z 
_atom_site_charge 
O1          O  0.25309954  0.43826467  0.45737326    -0.71200
O2          O  0.25294113  0.44026099  0.04446219    -0.71400
O3          O  0.29236769  0.43933672  0.50072818    -0.71300
O4          O  0.21337795  0.43927664  0.00126352    -0.71300
O5          O  0.21232015  0.39399454  0.50190528    -0.71200
O6          O  0.29133502  0.39407688  0.00196410    -0.71200
O7          O  0.25135997  0.39516679  0.04537150    -0.71200
O8          O  0.25195697  0.39299500  0.45842194    -0.71400
V9          V  0.25288759  0.43841257  0.50094759     1.35200
V10         V  0.25180285  0.39494291  0.00190762     1.35200
C11         C  0.25249383  0.41528329  0.44314129     0.78100
C12         C  0.25222454  0.41801370  0.05988226     0.78100
C13         C  0.30520359  0.41674051  0.00144701     0.78000
C14         C  0.19950940  0.41661091  0.00159544     0.77900
O15         O  0.28945346  0.39320799  0.25045652    -0.71200
O16         O  0.21042791  0.39360155  0.25263149    -0.71400
O17         O  0.24934121  0.39441869  0.20821017    -0.71300
O18         O  0.25031536  0.39252543  0.29517340    -0.71300
O19         O  0.25205304  0.43779295  0.29639393    -0.71200
O20         O  0.25088285  0.43951382  0.20941050    -0.71200
O21         O  0.21173907  0.43887506  0.25390237    -0.71200
O22         O  0.29073945  0.43847615  0.25152159    -0.71400
V23         V  0.24992481  0.39431565  0.25167267     1.35200
V24         V  0.25126737  0.43778419  0.25285106     1.35200
C25         C  0.30344270  0.41580552  0.25026663     0.78100
C26         C  0.19772911  0.41629275  0.25335163     0.78100
C27         C  0.25025554  0.41725007  0.19385272     0.78000
C28         C  0.25141417  0.41487369  0.31053778     0.77900
O29         O  0.41081916  0.28223224  0.45489893    -0.71200
O30         O  0.40783004  0.28040695  0.04213699    -0.71400
O31         O  0.40908484  0.24190548  0.49730588    -0.71300
O32         O  0.40987798  0.32105925  0.99974292    -0.71300
O33         O  0.36477522  0.32056360  0.49621651    -0.71200
O34         O  0.36384024  0.24126814  0.99839114    -0.71200
O35         O  0.36271104  0.28219819  0.04075693    -0.71200
O36         O  0.36569916  0.27967610  0.45378880    -0.71400
V37         V  0.40853886  0.28143899  0.49849582     1.35200
V38         V  0.36513249  0.28093901  0.99727518     1.35200
C39         C  0.38869191  0.28059838  0.43943661     0.78100
C40         C  0.38472853  0.28129530  0.05625433     0.78100
C41         C  0.38636123  0.22817638  0.99783699     0.78000
C42         C  0.38749599  0.33423394  0.99821705     0.77900
O43         O  0.40655123  0.28014396  0.20285057    -0.71200
O44         O  0.40950168  0.28111899  0.28984261    -0.71400
O45         O  0.40754035  0.24113478  0.24681758    -0.71300
O46         O  0.40859464  0.32035900  0.24607972    -0.71300
O47         O  0.36345303  0.31990423  0.25003477    -0.71200
O48         O  0.36229254  0.24070413  0.24738012    -0.71200
O49         O  0.36437137  0.27923101  0.29214613    -0.71200
O50         O  0.36140147  0.28152565  0.20511113    -0.71400
V51         V  0.40716846  0.28071397  0.24640901     1.35200
V52         V  0.36374909  0.28033738  0.24861545     1.35200
C53         C  0.38350655  0.28091805  0.18918802     0.78100
C54         C  0.38743997  0.27995387  0.30587881     0.78100
C55         C  0.38473729  0.22751101  0.24716184     0.78000
C56         C  0.38621050  0.33353902  0.24828175     0.77900
O57         O  0.21120801  0.16776652  0.00013772    -0.71200
O58         O  0.29036605  0.16676874  0.49912490    -0.71400
O59         O  0.25053830  0.16868926  0.45600041    -0.71300
O60         O  0.25078905  0.16578948  0.04304309    -0.71300
O61         O  0.24937214  0.12057906  0.04127285    -0.71200
O62         O  0.24935250  0.12346484  0.45410763    -0.71200
O63         O  0.28886510  0.12152628  0.99731264    -0.71200
O64         O  0.20967581  0.12252061  0.49826420    -0.71400
V65         V  0.25074807  0.16636144  0.99952085     1.35200
V66         V  0.24932230  0.12290178  0.99772482     1.35200
C67         C  0.19703527  0.14529694  0.99948576     0.78100
C68         C  0.30301215  0.14400374  0.99836682     0.78100
C69         C  0.24980275  0.14655148  0.44023087     0.78000
C70         C  0.24996925  0.14275027  0.05700077     0.77900
O71         O  0.24586788  0.12085960  0.20582888    -0.71200
O72         O  0.24740101  0.12365454  0.29298638    -0.71400
O73         O  0.20681629  0.12257068  0.25069579    -0.71300
O74         O  0.28594917  0.12187056  0.24805076    -0.71300
O75         O  0.28733648  0.16714279  0.24777881    -0.71200
O76         O  0.20811733  0.16776634  0.24808102    -0.71200
O77         O  0.24743134  0.16886484  0.29153674    -0.71200
O78         O  0.24801331  0.16606083  0.20440234    -0.71400
V79         V  0.24646013  0.12312115  0.24938764     1.35200
V80         V  0.24770311  0.16657765  0.24797542     1.35200
C81         C  0.24712153  0.14301746  0.19026564     0.78100
C82         C  0.24767862  0.14672451  0.30709447     0.78100
C83         C  0.19404575  0.14525068  0.24962061     0.78000
C84         C  0.30002959  0.14439225  0.24754973     0.77900
O85         O  0.08935227  0.28200395  0.04598677    -0.71200
O86         O  0.09188352  0.27801503  0.45904248    -0.71400
O87         O  0.09010386  0.24034668  0.00419145    -0.71300
O88         O  0.09140961  0.31953842  0.50056577    -0.71300
O89         O  0.13656026  0.31984748  0.00347487    -0.71200
O90         O  0.13536419  0.24086059  0.50379497    -0.71200
O91         O  0.13703143  0.27985870  0.45995845    -0.71200
O92         O  0.13450512  0.28065267  0.04716500    -0.71400
V93         V  0.09155622  0.27998001  0.00250450     1.35200
V94         V  0.13498736  0.28032609  0.50357760     1.35200
C95         C  0.11147393  0.28172028  0.06137224     0.78100
C96         C  0.11482557  0.27837783  0.44460120     0.78100
C97         C  0.11260319  0.22722540  0.00400512     0.78000
C98         C  0.11425171  0.33306731  0.00178298     0.77900
O99         O  0.08748661  0.28213460  0.21012814    -0.71200
O100        O  0.09021344  0.27767314  0.29713921    -0.71400
O101        O  0.08987389  0.31937161  0.25616753    -0.71300
O102        O  0.08785976  0.24029420  0.25111518    -0.71300
O103        O  0.13311000  0.24035130  0.25112743    -0.71200
O104        O  0.13494703  0.31935534  0.25123902    -0.71200
O105        O  0.13533751  0.27981892  0.29491856    -0.71200
O106        O  0.13256977  0.27970766  0.20794587    -0.71400
V107        V  0.08970514  0.27985813  0.25360932     1.35200
V108        V  0.13311203  0.27983420  0.25141185     1.35200
C109        C  0.10961269  0.28122071  0.19425027     0.78100
C110        C  0.11325437  0.27833672  0.31093804     0.78100
C111        C  0.11274412  0.33273065  0.25376516     0.78000
C112        C  0.11021162  0.22695972  0.25054327     0.77900
O113        O  0.42767492  0.41593706  0.02596804    -0.71200
O114        O  0.34870732  0.41786685  0.02642573    -0.71400
O115        O  0.38644102  0.37742237  0.02464391    -0.71300
O116        O  0.39013199  0.45671618  0.02780063    -0.71300
O117        O  0.38730991  0.45795843  0.47820715    -0.71200
O118        O  0.38961121  0.37887270  0.47498131    -0.71200
O119        O  0.34908760  0.41638317  0.47664603    -0.71200
O120        O  0.42799544  0.42057287  0.47673090    -0.71400
V121        V  0.38823526  0.41703932  0.02529664     1.35200
V122        V  0.38852927  0.41842255  0.47758425     1.35200
C123        C  0.44148569  0.41824312  0.50127678     0.78100
C124        C  0.33553482  0.41691382  0.50153836     0.78100
C125        C  0.38786026  0.36472411  0.99928778     0.78000
C126        C  0.38868066  0.47083627  0.00347996     0.77900
O127        O  0.42605582  0.41974352  0.27229786    -0.71200
O128        O  0.34732790  0.41467976  0.27373250    -0.71400
O129        O  0.38822358  0.37761976  0.27314499    -0.71300
O130        O  0.38495693  0.45680275  0.27269736    -0.71300
O131        O  0.38829261  0.45637905  0.22303922    -0.71200
O132        O  0.38494424  0.37721897  0.22352135    -0.71200
O133        O  0.34696838  0.41750496  0.22405271    -0.71200
O134        O  0.42618503  0.41580513  0.22293360    -0.71400
V135        V  0.38668185  0.41721267  0.27202489     1.35200
V136        V  0.38659197  0.41677375  0.22428782     1.35200
C137        C  0.43977362  0.41761097  0.24758363     0.78100
C138        C  0.33378044  0.41585045  0.24922469     0.78100
C139        C  0.38654203  0.36400564  0.24835616     0.78000
C140        C  0.38641929  0.47008355  0.24773773     0.77900
O141        O  0.42662850  0.14356013  0.47651930    -0.71200
O142        O  0.34756081  0.14426443  0.47449115    -0.71400
O143        O  0.38834219  0.18361238  0.47413727    -0.71300
O144        O  0.38582552  0.10434621  0.47704561    -0.71300
O145        O  0.38716187  0.10609409  0.02675182    -0.71200
O146        O  0.38435240  0.18502617  0.02373946    -0.71200
O147        O  0.34614865  0.14346385  0.02427084    -0.71200
O148        O  0.42536958  0.14781121  0.02605057    -0.71400
V149        V  0.38707505  0.14398704  0.47648910     1.35200
V150        V  0.38577104  0.14556638  0.02425153     1.35200
C151        C  0.43950272  0.14566778  0.00157508     0.78100
C152        C  0.33345227  0.14376152  0.99905332     0.78100
C153        C  0.38624844  0.19772093  0.49852694     0.78000
C154        C  0.38663696  0.09176110  0.50241420     0.77900
O155        O  0.42321090  0.14584401  0.22185167    -0.71200
O156        O  0.34389468  0.14257304  0.22215001    -0.71400
O157        O  0.38276259  0.18367347  0.22222814    -0.71300
O158        O  0.38438296  0.10462476  0.22148271    -0.71300
O159        O  0.38083216  0.10429431  0.27113421    -0.71200
O160        O  0.38557435  0.18358605  0.27188974    -0.71200
O161        O  0.34379251  0.14544285  0.27186462    -0.71200
O162        O  0.42272295  0.14236216  0.27145915    -0.71400
V163        V  0.38354162  0.14416329  0.22286122     1.35200
V164        V  0.38324076  0.14393618  0.27065073     1.35200
C165        C  0.43644866  0.14397771  0.24664682     0.78100
C166        C  0.33045007  0.14411476  0.24712728     0.78100
C167        C  0.38434752  0.19704358  0.24712289     0.78000
C168        C  0.38256165  0.09097144  0.24614422     0.77900
O169        O  0.07420963  0.14342794  0.02732947    -0.71200
O170        O  0.15340191  0.14342476  0.02540036    -0.71400
O171        O  0.11454659  0.18300281  0.02764608    -0.71300
O172        O  0.11305248  0.10393557  0.02496085    -0.71300
O173        O  0.11569422  0.10514037  0.47546062    -0.71200
O174        O  0.11112212  0.18393445  0.47803912    -0.71200
O175        O  0.15288601  0.14742199  0.47583072    -0.71200
O176        O  0.07372728  0.14142865  0.47762534    -0.71400
V177        V  0.11378236  0.14346342  0.02540430     1.35200
V178        V  0.11332200  0.14448753  0.47767445     1.35200
C179        C  0.06046610  0.14218716  0.50279218     0.78100
C180        C  0.16656460  0.14554817  0.50027615     0.78100
C181        C  0.11253732  0.19683747  0.00326548     0.78000
C182        C  0.11511534  0.09095540  0.99979503     0.77900
O183        O  0.07029752  0.14087855  0.27309843    -0.71200
O184        O  0.14967205  0.14612600  0.27429896    -0.71400
O185        O  0.10824142  0.18297577  0.27440321    -0.71300
O186        O  0.11198487  0.10437237  0.27344527    -0.71300
O187        O  0.11039755  0.10418725  0.22393700    -0.71200
O188        O  0.11159081  0.18347677  0.22470906    -0.71200
O189        O  0.15055239  0.14409017  0.22455127    -0.71200
O190        O  0.07148200  0.14369889  0.22344971    -0.71400
V191        V  0.11002049  0.14360959  0.27285601     1.35200
V192        V  0.11097845  0.14385514  0.22509269     1.35200
C193        C  0.05739822  0.14203563  0.24799466     0.78100
C194        C  0.16354147  0.14530805  0.24953768     0.78100
C195        C  0.10978521  0.19659239  0.24978547     0.78000
C196        C  0.11167465  0.09066743  0.24871748     0.77900
O197        O  0.07746732  0.41839015  0.47576784    -0.71200
O198        O  0.15618983  0.41400465  0.47652359    -0.71400
O199        O  0.11367462  0.37652295  0.47645080    -0.71300
O200        O  0.11993095  0.45542268  0.47559234    -0.71300
O201        O  0.11481715  0.45617106  0.02494167    -0.71200
O202        O  0.11705900  0.37716334  0.02607897    -0.71200
O203        O  0.15549195  0.41876555  0.02606022    -0.71200
O204        O  0.07659040  0.41463914  0.02511844    -0.71400
V205        V  0.11681306  0.41604201  0.47697642     1.35200
V206        V  0.11602112  0.41666477  0.02466310     1.35200
C207        C  0.06340619  0.41685080  0.00036678     0.78100
C208        C  0.16919981  0.41649338  0.00139943     0.78100
C209        C  0.11494663  0.36345505  0.50141953     0.78000
C210        C  0.11754953  0.46938334  0.50003436     0.77900
O211        O  0.07584395  0.41285233  0.22589189    -0.71200
O212        O  0.15476312  0.41769704  0.22767470    -0.71400
O213        O  0.11677103  0.37582696  0.22802085    -0.71300
O214        O  0.11368869  0.45475410  0.22570032    -0.71300
O215        O  0.11680782  0.45594139  0.27512276    -0.71200
O216        O  0.11084455  0.37709329  0.27745079    -0.71200
O217        O  0.15329128  0.41472976  0.27734753    -0.71200
O218        O  0.07448790  0.41867729  0.27509078    -0.71400
V219        V  0.11527351  0.41529810  0.22770481     1.35200
V220        V  0.11389495  0.41655976  0.27536665     1.35200
C221        C  0.06156866  0.41586003  0.25011800     0.78100
C222        C  0.16739385  0.41633590  0.25282461     0.78100
C223        C  0.11348416  0.36308679  0.25310312     0.78000
C224        C  0.11517237  0.46895427  0.25012368     0.77900
C225        C  0.11289018  0.05950360  0.24906231    -0.04700
C226        C  0.10325469  0.04423642  0.27502440    -0.01900
C227        C  0.10371934  0.01489380  0.27512979     0.03100
C228        C  0.11467888  0.00012470  0.24973828    -0.04700
C229        C  0.12511225  0.01534993  0.22418261    -0.01800
C230        C  0.12420145  0.04474078  0.22382555     0.03100
C231        C  0.09264440  0.05837547  0.30205507     0.37800
C232        C  0.13773909  0.00101261  0.19840368     0.37800
C233        C  0.13632225  0.05964286  0.19786702     0.36200
C234        C  0.09203354  0.00008880  0.30142496     0.36200
N235        N  0.14611190  0.07138623  0.17716262    -0.38600
N236        N  0.08260654  0.48849093  0.32240349    -0.38600
N237        N  0.14757620  0.48958093  0.17766685    -0.38100
N238        N  0.08434719  0.06941893  0.32380136    -0.38100
C239        C  0.11696768  0.05986130  0.99901102    -0.04700
C240        C  0.12836169  0.04546645  0.02409291    -0.01900
C241        C  0.12881455  0.01609652  0.02423150     0.03100
C242        C  0.11779059  0.00050426  0.49939561    -0.04700
C243        C  0.10725665  0.01486219  0.47386122    -0.01800
C244        C  0.10746396  0.04425557  0.47335191     0.03100
C245        C  0.14103715  0.06071814  0.04935495     0.37800
C246        C  0.09515392  0.99957340  0.44828161     0.37800
C247        C  0.09784685  0.05810351  0.44605524     0.36200
C248        C  0.14152921  0.00209767  0.04978776     0.36200
N249        N  0.09047531  0.06889324  0.42401857    -0.38600
N250        N  0.15179838  0.49101585  0.07017522    -0.38600
N251        N  0.08518918  0.48747233  0.42808190    -0.38100
N252        N  0.15125184  0.07276207  0.06949327    -0.38100
C253        C  0.46738314  0.14337902  0.24670981    -0.04700
C254        C  0.48104513  0.12090976  0.26034695    -0.01900
C255        C  0.01041409  0.12008415  0.26006173     0.03100
C256        C  0.02644444  0.14220917  0.24723195    -0.04700
C257        C  0.01277885  0.16465120  0.23351852    -0.01800
C258        C  0.48339470  0.16516739  0.23314343     0.03100
C259        C  0.46488488  0.09819203  0.27403829     0.37800
C260        C  0.02896215  0.18761859  0.22037670     0.37800
C261        C  0.46969465  0.18880620  0.21998142     0.36200
C262        C  0.02397688  0.09555767  0.27119717     0.36200
N263        N  0.45893421  0.20782766  0.20960764    -0.38600
N264        N  0.03433644  0.07554216  0.27961507    -0.38600
N265        N  0.04185416  0.20592181  0.20986410    -0.38100
N266        N  0.45205403  0.08008739  0.28504230    -0.38100
C267        C  0.47046327  0.14477579  0.00220566    -0.04700
C268        C  0.48619699  0.16504969  0.01854183    -0.01900
C269        C  0.01554357  0.16385971  0.01923038     0.03100
C270        C  0.02949290  0.14247086  0.50343831    -0.04700
C271        C  0.01374410  0.12195909  0.48754712    -0.01800
C272        C  0.48443773  0.12324620  0.48665728     0.03100
C273        C  0.47244281  0.18813184  0.03324601     0.37800
C274        C  0.02747975  0.09858645  0.47342539     0.37800
C275        C  0.46863220  0.10187718  0.47030621     0.36200
C276        C  0.03143983  0.18525939  0.03542664     0.36200
N277        N  0.45602135  0.08488696  0.45722560    -0.38600
N278        N  0.04412946  0.20227883  0.04837395    -0.38600
N279        N  0.03797614  0.07954320  0.46239332    -0.38100
N280        N  0.46188018  0.20688589  0.04481739    -0.38100
C281        C  0.47100630  0.41686292  0.24786085    -0.04700
C282        C  0.48506372  0.40769464  0.27433265    -0.01900
C283        C  0.01438670  0.40670547  0.27471813     0.03100
C284        C  0.03043534  0.41611354  0.24926700    -0.04700
C285        C  0.01650835  0.42574027  0.22302155    -0.01800
C286        C  0.48711492  0.42517878  0.22190231     0.03100
C287        C  0.46962256  0.39854821  0.30138632     0.37800
C288        C  0.03224689  0.43745160  0.19737025     0.37800
C289        C  0.47380234  0.43347900  0.19378290     0.36200
C290        C  0.02781347  0.39508700  0.30129529     0.36200
N291        N  0.46345453  0.43987200  0.17112689    -0.38600
N292        N  0.03836459  0.38576033  0.32250969    -0.38600
N293        N  0.04469533  0.44697332  0.17697253    -0.38100
N294        N  0.45749546  0.39156202  0.32317328    -0.38100
C295        C  0.38308363  0.06003142  0.24581708    -0.04700
C296        C  0.40533877  0.04621471  0.23141251    -0.01900
C297        C  0.40667189  0.01689617  0.23253440     0.03100
C298        C  0.38543998  0.00103708  0.24740348    -0.04700
C299        C  0.36282709  0.01483488  0.26111774    -0.01800
C300        C  0.36162328  0.04417174  0.26023388     0.03100
C301        C  0.42720868  0.06217158  0.21582384     0.37800
C302        C  0.34013412  0.99885532  0.27512453     0.37800
C303        C  0.33730504  0.05784533  0.27238150     0.36200
C304        C  0.43064033  0.00323744  0.21954970     0.36200
N305        N  0.31753207  0.06839344  0.28165395    -0.38600
N306        N  0.45018572  0.49273733  0.20947204    -0.38600
N307        N  0.32175680  0.48630390  0.28593142    -0.38100
N308        N  0.44459297  0.07486879  0.20327453    -0.38100
C309        C  0.47273141  0.41806897  0.00100270    -0.04700
C310        C  0.48803277  0.42562368  0.02754110    -0.01900
C311        C  0.01741859  0.42622077  0.02689927     0.03100
C312        C  0.03223025  0.41767659  0.00034507    -0.04700
C313        C  0.01696654  0.40978993  0.47393185    -0.01800
C314        C  0.48759383  0.41029341  0.47415079     0.03100
C315        C  0.47390301  0.43308402  0.05586468     0.37800
C316        C  0.03118187  0.40053021  0.44632691     0.37800
C317        C  0.47292081  0.40187356  0.44655674     0.36200
C318        C  0.03218562  0.43682629  0.05357186     0.36200
N319        N  0.46141618  0.39530747  0.42442889    -0.38600
N320        N  0.04380762  0.44541937  0.07481442    -0.38600
N321        N  0.04232504  0.39320639  0.42418770    -0.38100
N322        N  0.46292335  0.43884722  0.07867392    -0.38100
C323        C  0.38687632  0.06085180  0.00354251    -0.04700
C324        C  0.40886276  0.04709028  0.01789598    -0.01900
C325        C  0.40935720  0.01766531  0.01815670     0.03100
C326        C  0.38780792  0.00176960  0.00418605    -0.04700
C327        C  0.36556655  0.01561517  0.49041515    -0.01800
C328        C  0.36511759  0.04497680  0.49009836     0.03100
C329        C  0.43151310  0.06321006  0.03149919     0.37800
C330        C  0.34251179  0.99968083  0.47744517     0.37800
C331        C  0.34157453  0.05883763  0.47702320     0.36200
C332        C  0.43271801  0.00389839  0.03167262     0.36200
N333        N  0.32260693  0.06974631  0.46680620    -0.38600
N334        N  0.45186921  0.49332297  0.04238115    -0.38600
N335        N  0.32399289  0.48725454  0.46750970    -0.38100
N336        N  0.44960207  0.07604454  0.04231542    -0.38100
C337        C  0.11545760  0.27731640  0.41039386    -0.04700
C338        C  0.13393111  0.29491568  0.39355717    -0.01900
C339        C  0.13341570  0.29502071  0.36119735     0.03100
C340        C  0.11434724  0.27757074  0.34515154    -0.04700
C341        C  0.09631472  0.25945803  0.36199784    -0.01800
C342        C  0.09704153  0.25916721  0.39436655     0.03100
C343        C  0.15296933  0.31367048  0.40951733     0.37800
C344        C  0.07749442  0.24039782  0.34609033     0.37800
C345        C  0.07959161  0.23924511  0.41110916     0.36200
C346        C  0.15190882  0.31397974  0.34451159     0.36200
N347        N  0.06582617  0.22325314  0.42446902    -0.38600
N348        N  0.16668606  0.32899674  0.33109913    -0.38600
N349        N  0.06245031  0.22520463  0.33345440    -0.38100
N350        N  0.16818875  0.32845539  0.42243464    -0.38100
C351        C  0.11043431  0.28175760  0.09536806    -0.04700
C352        C  0.12120762  0.25913446  0.11155208    -0.01900
C353        C  0.12027794  0.25878226  0.14381173     0.03100
C354        C  0.10890776  0.28122593  0.16027062    -0.04700
C355        C  0.09774062  0.30375586  0.14414947    -0.01800
C356        C  0.09847653  0.30400607  0.11174564     0.03100
C357        C  0.13241410  0.23569753  0.09490722     0.37800
C358        C  0.08634062  0.32707682  0.16089768     0.37800
C359        C  0.08790410  0.32762861  0.09529159     0.36200
C360        C  0.12995744  0.23469949  0.16010051     0.36200
N361        N  0.07955967  0.34652375  0.08216675    -0.38600
N362        N  0.13739444  0.21539926  0.17315543    -0.38600
N363        N  0.07727843  0.34568829  0.17427769    -0.38100
N364        N  0.14119068  0.21701192  0.08147094    -0.38100
C365        C  0.24963012  0.14755245  0.40617788    -0.04700
C366        C  0.22850438  0.16160432  0.39059308    -0.01900
C367        C  0.22796761  0.16163229  0.35819298     0.03100
C368        C  0.24860783  0.14769588  0.34115000    -0.04700
C369        C  0.27027203  0.13460027  0.35678244    -0.01800
C370        C  0.27067914  0.13436669  0.38909761     0.03100
C371        C  0.20680925  0.17532379  0.40788787     0.37800
C372        C  0.29314307  0.12275524  0.33967361     0.37800
C373        C  0.29355982  0.12160884  0.40475292     0.36200
C374        C  0.20574442  0.17539347  0.34241215     0.36200
N375        N  0.31200640  0.11160493  0.41705690    -0.38600
N376        N  0.18804812  0.18638146  0.32978306    -0.38600
N377        N  0.31177233  0.11365510  0.32635312    -0.38100
N378        N  0.18950372  0.18627497  0.42168514    -0.38100
C379        C  0.24900832  0.14198105  0.09109214    -0.04700
C380        C  0.26783250  0.12581034  0.10770211    -0.01900
C381        C  0.26715403  0.12597246  0.14011732     0.03100
C382        C  0.24751503  0.14214047  0.15615773    -0.04700
C383        C  0.22852309  0.15799060  0.13948478    -0.01800
C384        C  0.22925136  0.15788885  0.10717642     0.03100
C385        C  0.28867585  0.10991478  0.09149722     0.37800
C386        C  0.20768242  0.17387619  0.15562963     0.37800
C387        C  0.20903281  0.17350875  0.09033630     0.36200
C388        C  0.28758413  0.11057871  0.15695683     0.36200
N389        N  0.19309131  0.18579660  0.07645024    -0.38600
N390        N  0.30395356  0.09844497  0.17044053    -0.38600
N391        N  0.19115196  0.18647890  0.16875822    -0.38100
N392        N  0.30533355  0.09727932  0.07855945    -0.38100
C393        C  0.38943544  0.27958412  0.40523670    -0.04700
C394        C  0.37108343  0.26132478  0.38924213    -0.01900
C395        C  0.37045387  0.26143535  0.35690528     0.03100
C396        C  0.38855581  0.27941879  0.34003696    -0.04700
C397        C  0.40771936  0.29683098  0.35598325    -0.01800
C398        C  0.40806506  0.29702418  0.38835691     0.03100
C399        C  0.35359895  0.24141546  0.40596392     0.37800
C400        C  0.42660165  0.31529585  0.33914254     0.37800
C401        C  0.42706056  0.31593940  0.40419051     0.36200
C402        C  0.35174523  0.24221475  0.34104040     0.36200
N403        N  0.44225946  0.33099252  0.41679236    -0.38600
N404        N  0.33682015  0.22689087  0.32841993    -0.38600
N405        N  0.44172023  0.32983363  0.32555091    -0.38100
N406        N  0.33978397  0.22541838  0.41925313    -0.38100
C407        C  0.38346080  0.28099614  0.09025511    -0.04700
C408        C  0.37267986  0.30379835  0.10669865    -0.01900
C409        C  0.37211122  0.30360368  0.13909088     0.03100
C410        C  0.38257731  0.28072186  0.15520643    -0.04700
C411        C  0.39260209  0.25764743  0.13872261    -0.01800
C412        C  0.39286136  0.25771157  0.10642017     0.03100
C413        C  0.36294753  0.32782519  0.09030786     0.37800
C414        C  0.40170226  0.23328091  0.15496994     0.37800
C415        C  0.40156455  0.23315304  0.08990064     0.36200
C416        C  0.36151578  0.32730288  0.15582629     0.36200
N417        N  0.40820411  0.21319609  0.07717624    -0.38600
N418        N  0.35306630  0.34623251  0.16915072    -0.38600
N419        N  0.40882911  0.21363288  0.16763378    -0.38100
N420        N  0.35525688  0.34703587  0.07724363    -0.38100
C421        C  0.25189036  0.41427080  0.34443326    -0.04700
C422        C  0.22803208  0.40541874  0.36115425    -0.01900
C423        C  0.22835564  0.40534542  0.39347408     0.03100
C424        C  0.25239751  0.41451211  0.40924071    -0.04700
C425        C  0.27629837  0.42316246  0.39251028    -0.01800
C426        C  0.27610696  0.42286729  0.36021010     0.03100
C427        C  0.20279585  0.39739396  0.34513115     0.37800
C428        C  0.30138024  0.43174639  0.40848856     0.37800
C429        C  0.30116006  0.43067617  0.34328579     0.36200
C430        C  0.20363921  0.39662146  0.41047331     0.36200
N431        N  0.32141973  0.43677692  0.33019314    -0.38600
N432        N  0.18379354  0.38967158  0.42384021    -0.38600
N433        N  0.32156285  0.43856108  0.42093257    -0.38100
N434        N  0.18254936  0.39120200  0.33244834    -0.38100
C435        C  0.25103481  0.41782674  0.15956429    -0.04700
C436        C  0.23927783  0.44005944  0.14324996    -0.01900
C437        C  0.24005905  0.44044354  0.11087098     0.03100
C438        C  0.25243349  0.41849314  0.09419084    -0.04700
C439        C  0.26479699  0.39665391  0.11055826    -0.01800
C440        C  0.26399904  0.39625232  0.14287076     0.03100
C441        C  0.22547092  0.46232477  0.15955832     0.37800
C442        C  0.27934783  0.37481477  0.09434466     0.37800
C443        C  0.27732963  0.37373108  0.15875493     0.36200
C444        C  0.22743328  0.46333912  0.09494436     0.36200
N445        N  0.28781918  0.35567109  0.17134104    -0.38600
N446        N  0.21750227  0.48174726  0.08239537    -0.38600
N447        N  0.29089887  0.35734963  0.08149286    -0.38100
N448        N  0.21452588  0.48014658  0.17248175    -0.38100
O449        O  0.25310041  0.43826286  0.95737218    -0.71200
O450        O  0.25293559  0.44026119  0.54446346    -0.71400
O451        O  0.29237082  0.43933529  0.00072450    -0.71300
O452        O  0.21337470  0.43927735  0.50126241    -0.71300
O453        O  0.21232304  0.39399383  0.00190736    -0.71200
O454        O  0.29133223  0.39407831  0.50196664    -0.71200
O455        O  0.25135494  0.39516690  0.54537151    -0.71200
O456        O  0.25195762  0.39299320  0.95842170    -0.71400
V457        V  0.25289078  0.43841152  0.00094641     1.35200
V458        V  0.25180000  0.39494394  0.50190780     1.35200
C459        C  0.25249382  0.41528130  0.94314065     0.78100
C460        C  0.25221855  0.41801348  0.55988282     0.78100
C461        C  0.30520067  0.41674205  0.50145083     0.78000
C462        C  0.19950630  0.41661152  0.50159343     0.77900
O463        O  0.28944936  0.39320702  0.75045551    -0.71200
O464        O  0.21042388  0.39360090  0.75263193    -0.71400
O465        O  0.24933636  0.39441759  0.70821013    -0.71300
O466        O  0.25031167  0.39252479  0.79517319    -0.71300
O467        O  0.25204821  0.43779235  0.79639344    -0.71200
O468        O  0.25087939  0.43951276  0.70941011    -0.71200
O469        O  0.21173526  0.43887447  0.75390099    -0.71200
O470        O  0.29073547  0.43847517  0.75152181    -0.71400
V471        V  0.24992068  0.39431480  0.75167249     1.35200
V472        V  0.25126340  0.43778337  0.75285059     1.35200
C473        C  0.30343867  0.41580454  0.75026595     0.78100
C474        C  0.19772527  0.41629221  0.75335096     0.78100
C475        C  0.25025098  0.41724890  0.69385261     0.78000
C476        C  0.25140968  0.41487315  0.81053740     0.77900
O477        O  0.41082347  0.28223351  0.95489837    -0.71200
O478        O  0.40782606  0.28040848  0.54213797    -0.71400
O479        O  0.40908803  0.24190510  0.99730354    -0.71300
O480        O  0.40987334  0.32105941  0.49974218    -0.71300
O481        O  0.36478001  0.32056402  0.99621517    -0.71200
O482        O  0.36383703  0.24126751  0.49839159    -0.71200
O483        O  0.36270692  0.28219721  0.54075795    -0.71200
O484        O  0.36570337  0.27967606  0.95378808    -0.71400
V485        V  0.40854294  0.28143877  0.99849505     1.35200
V486        V  0.36512841  0.28093850  0.49727604     1.35200
C487        C  0.38869624  0.28059906  0.93943620     0.78100
C488        C  0.38472447  0.28129564  0.55625542     0.78100
C489        C  0.38635838  0.22817629  0.49783870     0.78000
C490        C  0.38749115  0.33423382  0.49821729     0.77900
O491        O  0.40654955  0.28014490  0.70285134    -0.71200
O492        O  0.40950340  0.28111960  0.78984306    -0.71400
O493        O  0.40754146  0.24113537  0.74681825    -0.71300
O494        O  0.40859325  0.32035971  0.74608073    -0.71300
O495        O  0.36345181  0.31990342  0.75003895    -0.71200
O496        O  0.36229364  0.24070349  0.74738212    -0.71200
O497        O  0.36437308  0.27922902  0.79214875    -0.71200
O498        O  0.36139985  0.28152601  0.70511388    -0.71400
V499        V  0.40716841  0.28071463  0.74640974     1.35200
V500        V  0.36374908  0.28033665  0.74861822     1.35200
C501        C  0.38350440  0.28091898  0.68918974     0.78100
C502        C  0.38744230  0.27995296  0.80588011     0.78100
C503        C  0.38473873  0.22751098  0.74716364     0.78000
C504        C  0.38620875  0.33353897  0.74828465     0.77900
O505        O  0.21120825  0.16776364  0.50013641    -0.71200
O506        O  0.29036610  0.16677103  0.99912077    -0.71400
O507        O  0.25053593  0.16869125  0.95599926    -0.71300
O508        O  0.25078663  0.16578580  0.54304473    -0.71300
O509        O  0.24937467  0.12057525  0.54127297    -0.71200
O510        O  0.24935319  0.12346682  0.95410736    -0.71200
O511        O  0.28886580  0.12152412  0.49731120    -0.71200
O512        O  0.20967531  0.12252360  0.99826242    -0.71400
V513        V  0.25074815  0.16635873  0.49952222     1.35200
V514        V  0.24932296  0.12289906  0.49772504     1.35200
C515        C  0.19703563  0.14529401  0.49948570     0.78100
C516        C  0.30301244  0.14400172  0.49836851     0.78100
C517        C  0.24980182  0.14655326  0.94023015     0.78000
C518        C  0.24996965  0.14274607  0.55700149     0.77900
O519        O  0.24587174  0.12085717  0.70582972    -0.71200
O520        O  0.24739978  0.12365656  0.79298691    -0.71400
O521        O  0.20681739  0.12257038  0.75069430    -0.71300
O522        O  0.28595037  0.12187104  0.74805426    -0.71300
O523        O  0.28733720  0.16714321  0.74777394    -0.71200
O524        O  0.20811812  0.16776620  0.74808251    -0.71200
O525        O  0.24743469  0.16886690  0.79153493    -0.71200
O526        O  0.24801124  0.16605858  0.70440036    -0.71400
V527        V  0.24646131  0.12312116  0.74938835     1.35200
V528        V  0.24770384  0.16657766  0.74797360     1.35200
C529        C  0.24712271  0.14301429  0.69026527     0.78100
C530        C  0.24767958  0.14672710  0.80709379     0.78100
C531        C  0.19404671  0.14525044  0.74962157     0.78000
C532        C  0.30003052  0.14439283  0.74754915     0.77900
O533        O  0.08935306  0.28200340  0.54598718    -0.71200
O534        O  0.09188393  0.27801703  0.95904228    -0.71400
O535        O  0.09010479  0.24034548  0.50419263    -0.71300
O536        O  0.09141025  0.31953983  0.00056644    -0.71300
O537        O  0.13655962  0.31984700  0.50347457    -0.71200
O538        O  0.13536324  0.24086102  0.00379564    -0.71200
O539        O  0.13703189  0.27985897  0.95995893    -0.71200
O540        O  0.13450591  0.28065203  0.54716467    -0.71400
V541        V  0.09155638  0.27997872  0.50250479     1.35200
V542        V  0.13498719  0.28032656  0.00357801     1.35200
C543        C  0.11147493  0.28171978  0.56137237     0.78100
C544        C  0.11482615  0.27837896  0.94460142     0.78100
C545        C  0.11260435  0.22722460  0.50400546     0.78000
C546        C  0.11425081  0.33306633  0.50178220     0.77900
O547        O  0.08748726  0.28213425  0.71012840    -0.71200
O548        O  0.09021319  0.27767363  0.79713966    -0.71400
O549        O  0.08987274  0.31937138  0.75616758    -0.71300
O550        O  0.08786082  0.24029424  0.75111613    -0.71300
O551        O  0.13311106  0.24035228  0.75113009    -0.71200
O552        O  0.13494591  0.31935643  0.75123871    -0.71200
O553        O  0.13533725  0.27982144  0.79491954    -0.71200
O554        O  0.13257046  0.27970760  0.70794691    -0.71400
V555        V  0.08970522  0.27985809  0.75360972     1.35200
V556        V  0.13311215  0.27983527  0.75141289     1.35200
C557        C  0.10961358  0.28122057  0.69425088     0.78100
C558        C  0.11325401  0.27833859  0.81093874     0.78100
C559        C  0.11274254  0.33273102  0.75376491     0.78000
C560        C  0.11021293  0.22696019  0.75054573     0.77900
O561        O  0.42767224  0.41593438  0.52597216    -0.71200
O562        O  0.34870449  0.41786647  0.52643011    -0.71400
O563        O  0.38643714  0.37742118  0.52464594    -0.71300
O564        O  0.39013042  0.45671473  0.52780757    -0.71300
O565        O  0.38731033  0.45795715  0.97820020    -0.71200
O566        O  0.38961616  0.37887180  0.97497927    -0.71200
O567        O  0.34909030  0.41637987  0.97664175    -0.71200
O568        O  0.42799794  0.42057434  0.97672680    -0.71400
V569        V  0.38823254  0.41703799  0.52530097     1.35200
V570        V  0.38853191  0.41842153  0.97757989     1.35200
C571        C  0.44148838  0.41824621  0.00127275     0.78100
C572        C  0.33553763  0.41691214  0.00153411     0.78100
C573        C  0.38785538  0.36472398  0.49928914     0.78000
C574        C  0.38868000  0.47083622  0.50348782     0.77900
O575        O  0.42605177  0.41974537  0.77229618    -0.71200
O576        O  0.34732408  0.41468063  0.77373131    -0.71400
O577        O  0.38822021  0.37762099  0.77314604    -0.71300
O578        O  0.38495259  0.45680417  0.77269278    -0.71300
O579        O  0.38828796  0.45637750  0.72303467    -0.71200
O580        O  0.38494095  0.37721763  0.72352241    -0.71200
O581        O  0.34696419  0.41750272  0.72405131    -0.71200
O582        O  0.42618104  0.41580417  0.72293226    -0.71400
V583        V  0.38667792  0.41721397  0.77202331     1.35200
V584        V  0.38658791  0.41677230  0.72428628     1.35200
C585        C  0.43976966  0.41761148  0.74758219     0.78100
C586        C  0.33377642  0.41584956  0.74922354     0.78100
C587        C  0.38653914  0.36400558  0.74835795     0.78000
C588        C  0.38641484  0.47008354  0.74773214     0.77900
O589        O  0.42662800  0.14355878  0.97651447    -0.71200
O590        O  0.34756021  0.14426671  0.97448832    -0.71400
O591        O  0.38834359  0.18361278  0.97413442    -0.71300
O592        O  0.38582329  0.10434642  0.97704090    -0.71300
O593        O  0.38716150  0.10609480  0.52675659    -0.71200
O594        O  0.38435153  0.18502668  0.52374232    -0.71200
O595        O  0.34614828  0.14346419  0.52427372    -0.71200
O596        O  0.42536917  0.14781199  0.52605542    -0.71400
V597        V  0.38707454  0.14398736  0.97648525     1.35200
V598        V  0.38577060  0.14556697  0.52425536     1.35200
C599        C  0.43950277  0.14566882  0.50158021     0.78100
C600        C  0.33345244  0.14376010  0.49905583     0.78100
C601        C  0.38625026  0.19772093  0.99852445     0.78000
C602        C  0.38663595  0.09176083  0.00240915     0.77900
O603        O  0.42321295  0.14584196  0.72185754    -0.71200
O604        O  0.34389662  0.14257474  0.72215122    -0.71400
O605        O  0.38276655  0.18367318  0.72223081    -0.71300
O606        O  0.38438301  0.10462460  0.72148633    -0.71300
O607        O  0.38083166  0.10429426  0.77113783    -0.71200
O608        O  0.38557379  0.18358625  0.77189278    -0.71200
O609        O  0.34379223  0.14544261  0.77186600    -0.71200
O610        O  0.42272248  0.14236229  0.77146523    -0.71400
V611        V  0.38354359  0.14416307  0.72286463     1.35200
V612        V  0.38324039  0.14393622  0.77065423     1.35200
C613        C  0.43644941  0.14397670  0.74665368     0.78100
C614        C  0.33045095  0.14411558  0.74712790     0.78100
C615        C  0.38434944  0.19704354  0.74712547     0.78000
C616        C  0.38256091  0.09097138  0.74614780     0.77900
O617        O  0.07421025  0.14342810  0.52732990    -0.71200
O618        O  0.15340231  0.14342276  0.52540016    -0.71400
O619        O  0.11454799  0.18300199  0.52764630    -0.71300
O620        O  0.11305214  0.10393487  0.52496066    -0.71300
O621        O  0.11569502  0.10514101  0.97546084    -0.71200
O622        O  0.11112077  0.18393505  0.97803891    -0.71200
O623        O  0.15288565  0.14742389  0.97583090    -0.71200
O624        O  0.07372720  0.14142805  0.97762491    -0.71400
V625        V  0.11378287  0.14346261  0.52540434     1.35200
V626        V  0.11332176  0.14448815  0.97767441     1.35200
C627        C  0.06046576  0.14218640  0.00279155     0.78100
C628        C  0.16656422  0.14555072  0.00027639     0.78100
C629        C  0.11253882  0.19683674  0.50326574     0.78000
C630        C  0.11511485  0.09095479  0.49979480     0.77900
O631        O  0.07029964  0.14088031  0.77310930    -0.71200
O632        O  0.14967464  0.14612758  0.77430356    -0.71400
O633        O  0.10824420  0.18297753  0.77440855    -0.71300
O634        O  0.11198715  0.10437397  0.77345586    -0.71300
O635        O  0.11039677  0.10418640  0.72394760    -0.71200
O636        O  0.11159066  0.18347583  0.72471413    -0.71200
O637        O  0.15055172  0.14408873  0.72455596    -0.71200
O638        O  0.07148146  0.14369811  0.72346035    -0.71400
V639        V  0.11002285  0.14361125  0.77286392     1.35200
V640        V  0.11097793  0.14385419  0.72510050     1.35200
C641        C  0.05739899  0.14203610  0.74800623     0.78100
C642        C  0.16354244  0.14530793  0.74954121     0.78100
C643        C  0.10978678  0.19659282  0.74978984     0.78000
C644        C  0.11167580  0.09066795  0.74872881     0.77900
O645        O  0.07747133  0.41839187  0.97576741    -0.71200
O646        O  0.15619343  0.41400497  0.97652505    -0.71400
O647        O  0.11367775  0.37652391  0.97645153    -0.71300
O648        O  0.11993541  0.45542331  0.97559208    -0.71300
O649        O  0.11481217  0.45616943  0.52494179    -0.71200
O650        O  0.11705821  0.37716217  0.52607804    -0.71200
O651        O  0.15548908  0.41876611  0.52605868    -0.71200
O652        O  0.07658762  0.41463565  0.52511890    -0.71400
V653        V  0.11681684  0.41604288  0.97697687     1.35200
V654        V  0.11601826  0.41666338  0.52466263     1.35200
C655        C  0.06340287  0.41684745  0.50036761     0.78100
C656        C  0.16919662  0.41649375  0.50139767     0.78100
C657        C  0.11494820  0.36345609  0.00142041     0.78000
C658        C  0.11755463  0.46938437  0.00003381     0.77900
O659        O  0.07584040  0.41285084  0.72589218    -0.71200
O660        O  0.15475947  0.41769833  0.72767410    -0.71400
O661        O  0.11676908  0.37582712  0.72802060    -0.71300
O662        O  0.11368386  0.45475388  0.72570001    -0.71300
O663        O  0.11680632  0.45594125  0.77512206    -0.71200
O664        O  0.11084007  0.37709344  0.77745021    -0.71200
O665        O  0.15328778  0.41472817  0.77734673    -0.71200
O666        O  0.07448484  0.41867890  0.77509050    -0.71400
V667        V  0.11526995  0.41529805  0.72770447     1.35200
V668        V  0.11389173  0.41655977  0.77536616     1.35200
C669        C  0.06156523  0.41586019  0.75011814     0.78100
C670        C  0.16739021  0.41633560  0.75282387     0.78100
C671        C  0.11348145  0.36308700  0.75310276     0.78000
C672        C  0.11516970  0.46895417  0.75012312     0.77900
C673        C  0.11289270  0.05950446  0.74907479    -0.04700
C674        C  0.10325525  0.04423722  0.77503589    -0.01900
C675        C  0.10372109  0.01489460  0.77514158     0.03100
C676        C  0.11468152  0.00012584  0.74975024    -0.04700
C677        C  0.12511731  0.01535139  0.72419597    -0.01800
C678        C  0.12420758  0.04474219  0.72383979     0.03100
C679        C  0.09264152  0.05837637  0.80206480     0.37800
C680        C  0.13774557  0.00101437  0.69841769     0.37800
C681        C  0.13633395  0.05964503  0.69788476     0.36200
C682        C  0.09203597  0.00008928  0.80143684     0.36200
N683        N  0.14612838  0.07138922  0.67718355    -0.38600
N684        N  0.08262121  0.48849391  0.82241176    -0.38600
N685        N  0.14755976  0.48957879  0.67765793    -0.38100
N686        N  0.08434128  0.06941996  0.82380960    -0.38100
C687        C  0.11696771  0.05986084  0.49901088    -0.04700
C688        C  0.12836231  0.04546647  0.52409274    -0.01900
C689        C  0.12881480  0.01609659  0.52423216     0.03100
C690        C  0.11779031  0.00050452  0.99939472    -0.04700
C691        C  0.10725622  0.01486290  0.97386072    -0.01800
C692        C  0.10746382  0.04425633  0.97335185     0.03100
C693        C  0.14103923  0.06071868  0.54935358     0.37800
C694        C  0.09515300  0.99957451  0.94828113     0.37800
C695        C  0.09784654  0.05810466  0.94605549     0.36200
C696        C  0.14152899  0.00209817  0.54978903     0.36200
N697        N  0.09047475  0.06889479  0.92401918    -0.38600
N698        N  0.15177818  0.49101434  0.57018569    -0.38600
N699        N  0.08518473  0.48747145  0.92808648    -0.38100
N700        N  0.15125524  0.07276312  0.56949072    -0.38100
C701        C  0.46738384  0.14337863  0.74671875    -0.04700
C702        C  0.48104571  0.12090917  0.76035559    -0.01900
C703        C  0.01041470  0.12008414  0.76007275     0.03100
C704        C  0.02644514  0.14221000  0.74724483    -0.04700
C705        C  0.01277960  0.16465251  0.73353227    -0.01800
C706        C  0.48339546  0.16516796  0.73315442     0.03100
C707        C  0.46488531  0.09819099  0.77404585     0.37800
C708        C  0.02896290  0.18762053  0.72039188     0.37800
C709        C  0.46969532  0.18880668  0.71999227     0.36200
C710        C  0.02397724  0.09555649  0.77120536     0.36200
N711        N  0.45893456  0.20782784  0.70961823    -0.38600
N712        N  0.03433615  0.07553968  0.77962048    -0.38600
N713        N  0.04185485  0.20592427  0.70988025    -0.38100
N714        N  0.45205436  0.08008606  0.78504911    -0.38100
C715        C  0.47046333  0.14477630  0.50221110    -0.04700
C716        C  0.48619755  0.16504975  0.51854736    -0.01900
C717        C  0.01554429  0.16385968  0.51923415     0.03100
C718        C  0.02949259  0.14246978  0.00343691    -0.04700
C719        C  0.01374430  0.12195748  0.98754592    -0.01800
C720        C  0.48443812  0.12324554  0.98665264     0.03100
C721        C  0.47244364  0.18813029  0.53325503     0.37800
C722        C  0.02748020  0.09858361  0.97342704     0.37800
C723        C  0.46863322  0.10187721  0.97029980     0.36200
C724        C  0.03144109  0.18525907  0.53543029     0.36200
N725        N  0.45602295  0.08488755  0.95721768    -0.38600
N726        N  0.04413118  0.20227834  0.54837730    -0.38600
N727        N  0.03797659  0.07953924  0.96239744    -0.38100
N728        N  0.46188130  0.20688284  0.54482973    -0.38100
C729        C  0.47100243  0.41686356  0.74785976    -0.04700
C730        C  0.48505998  0.40770042  0.77433370    -0.01900
C731        C  0.01438303  0.40671242  0.77472144     0.03100
C732        C  0.03043172  0.41611409  0.74926738    -0.04700
C733        C  0.01650451  0.42573501  0.72301929    -0.01800
C734        C  0.48711099  0.42517442  0.72189926     0.03100
C735        C  0.46961889  0.39855778  0.80138906     0.37800
C736        C  0.03224286  0.43743828  0.69736345     0.37800
C737        C  0.47379826  0.43347161  0.69377885     0.36200
C738        C  0.02780972  0.39510276  0.80130345     0.36200
N739        N  0.46345030  0.43986248  0.67112209    -0.38600
N740        N  0.03836063  0.38578361  0.82252213    -0.38600
N741        N  0.04469104  0.44695317  0.67696178    -0.38100
N742        N  0.45749204  0.39157435  0.82317716    -0.38100
C743        C  0.38308203  0.06003145  0.74582032    -0.04700
C744        C  0.40533870  0.04621454  0.73141913    -0.01900
C745        C  0.40667133  0.01689605  0.73254136     0.03100
C746        C  0.38543713  0.00103723  0.74740684    -0.04700
C747        C  0.36282227  0.01483517  0.76111676    -0.01800
C748        C  0.36161895  0.04417206  0.76023260     0.03100
C749        C  0.42721008  0.06217109  0.71583249     0.37800
C750        C  0.34012692  0.99885576  0.77511916     0.37800
C751        C  0.33729835  0.05784589  0.77237374     0.36200
C752        C  0.43064130  0.00323706  0.71956061     0.36200
N753        N  0.31752325  0.06839409  0.78164043    -0.38600
N754        N  0.45017598  0.49273364  0.70945274    -0.38600
N755        N  0.32175357  0.48630688  0.78592568    -0.38100
N756        N  0.44459534  0.07486799  0.70328448    -0.38100
C757        C  0.47272852  0.41806385  0.50100646    -0.04700
C758        C  0.48803059  0.42562350  0.52754268    -0.01900
C759        C  0.01741632  0.42622119  0.52689947     0.03100
C760        C  0.03222708  0.41767168  0.50034694    -0.04700
C761        C  0.01697035  0.40980221  0.97392689    -0.01800
C762        C  0.48759766  0.41030531  0.97414515     0.03100
C763        C  0.47390158  0.43308701  0.55586558     0.37800
C764        C  0.03118613  0.40055120  0.94631857     0.37800
C765        C  0.47292583  0.40189272  0.94654775     0.36200
C766        C  0.03218434  0.43683337  0.55356828     0.36200
N767        N  0.46142228  0.39533242  0.92441724    -0.38600
N768        N  0.04380728  0.44543182  0.57480773    -0.38600
N769        N  0.04232945  0.39323464  0.92417644    -0.38100
N770        N  0.46292252  0.43885231  0.57867451    -0.38100
C771        C  0.38687721  0.06085209  0.50354827    -0.04700
C772        C  0.40885975  0.04709083  0.51790927    -0.01900
C773        C  0.40935399  0.01766586  0.51817124     0.03100
C774        C  0.38780849  0.00176989  0.50419393    -0.04700
C775        C  0.36556261  0.01561507  0.99041411    -0.01800
C776        C  0.36511319  0.04497677  0.99009901     0.03100
C777        C  0.43150694  0.06321093  0.53151836     0.37800
C778        C  0.34250558  0.99968087  0.97744881     0.37800
C779        C  0.34156613  0.05883794  0.97703299     0.36200
C780        C  0.43271075  0.00389932  0.53169596     0.36200
N781        N  0.32259528  0.06974695  0.96682372    -0.38600
N782        N  0.45186798  0.49332365  0.54239268    -0.38600
N783        N  0.32399566  0.48725358  0.96749625    -0.38100
N784        N  0.44959332  0.07604588  0.54233902    -0.38100
C785        C  0.11545836  0.27731758  0.91039425    -0.04700
C786        C  0.13393080  0.29491796  0.89355768    -0.01900
C787        C  0.13341461  0.29502377  0.86119790     0.03100
C788        C  0.11434678  0.27757299  0.84515218    -0.04700
C789        C  0.09631531  0.25945924  0.86199844    -0.01800
C790        C  0.09704287  0.25916778  0.89436705     0.03100
C791        C  0.15296881  0.31367289  0.90951802     0.37800
C792        C  0.07749510  0.24039888  0.84609099     0.37800
C793        C  0.07959454  0.23924434  0.91110967     0.36200
C794        C  0.15190589  0.31398464  0.84451225     0.36200
N795        N  0.06583045  0.22325121  0.92446954    -0.38600
N796        N  0.16668158  0.32900335  0.83110000    -0.38600
N797        N  0.06245097  0.22520572  0.83345509    -0.38100
N798        N  0.16818810  0.32845774  0.92243555    -0.38100
C799        C  0.11043580  0.28175743  0.59536837    -0.04700
C800        C  0.12121022  0.25913496  0.61155264    -0.01900
C801        C  0.12028040  0.25878283  0.64381233     0.03100
C802        C  0.10890923  0.28122598  0.66027111    -0.04700
C803        C  0.09774167  0.30375557  0.64414981    -0.01800
C804        C  0.09847737  0.30400557  0.61174593     0.03100
C805        C  0.13241795  0.23569871  0.59490788     0.37800
C806        C  0.08634166  0.32707654  0.66089795     0.37800
C807        C  0.08790402  0.32762759  0.59529180     0.36200
C808        C  0.12996055  0.23470066  0.66010157     0.36200
N809        N  0.07955883  0.34652230  0.58216684    -0.38600
N810        N  0.13739766  0.21540137  0.67315805    -0.38600
N811        N  0.07727960  0.34568805  0.67427799    -0.38100
N812        N  0.14119551  0.21701391  0.58147111    -0.38100
C813        C  0.24962940  0.14755398  0.90617715    -0.04700
C814        C  0.22850707  0.16161074  0.89059206    -0.01900
C815        C  0.22797115  0.16163965  0.85819194     0.03100
C816        C  0.24860877  0.14769915  0.84114927    -0.04700
C817        C  0.27026948  0.13459824  0.85678204    -0.01800
C818        C  0.27067574  0.13436376  0.88909715     0.03100
C819        C  0.20681394  0.17533373  0.90788651     0.37800
C820        C  0.29313797  0.12274794  0.83967362     0.37800
C821        C  0.29355285  0.12159979  0.90475262     0.36200
C822        C  0.20575109  0.17540554  0.84241085     0.36200
N823        N  0.31199647  0.11159067  0.91705674    -0.38600
N824        N  0.18805717  0.18639725  0.82978169    -0.38600
N825        N  0.31176517  0.11364340  0.82635346    -0.38100
N826        N  0.18950997  0.18628752  0.92168355    -0.38100
C827        C  0.24900886  0.14197564  0.59109256    -0.04700
C828        C  0.26784516  0.12581908  0.60770247    -0.01900
C829        C  0.26716718  0.12598183  0.64011773     0.03100
C830        C  0.24751605  0.14213544  0.65615770    -0.04700
C831        C  0.22851074  0.15796926  0.63948478    -0.01800
C832        C  0.22923924  0.15786788  0.60717646     0.03100
C833        C  0.28869883  0.10993721  0.59149727     0.37800
C834        C  0.20765572  0.17383560  0.65563014     0.37800
C835        C  0.20900802  0.17347061  0.59033561     0.36200
C836        C  0.28760851  0.11060344  0.65695781     0.36200
N837        N  0.19305629  0.18574415  0.57644844    -0.38600
N838        N  0.30398677  0.09848192  0.67044196    -0.38600
N839        N  0.19111342  0.18642174  0.66876015    -0.38100
N840        N  0.30536451  0.09731241  0.57855910    -0.38100
C841        C  0.38943992  0.27958444  0.90523678    -0.04700
C842        C  0.37109383  0.26131865  0.88924300    -0.01900
C843        C  0.37046396  0.26142836  0.85690627     0.03100
C844        C  0.38855955  0.27941780  0.84003776    -0.04700
C845        C  0.40771768  0.29683651  0.85598327    -0.01800
C846        C  0.40806360  0.29703051  0.88835682     0.03100
C847        C  0.35361595  0.24140427  0.90596573     0.37800
C848        C  0.42659361  0.31530710  0.83914165     0.37800
C849        C  0.42705215  0.31595295  0.90419022     0.36200
C850        C  0.35176207  0.24220103  0.84104156     0.36200
N851        N  0.44224526  0.33101214  0.91679189    -0.38600
N852        N  0.33684251  0.22687164  0.82842119    -0.38600
N853        N  0.44170701  0.32984933  0.82554893    -0.38100
N854        N  0.33980633  0.22540332  0.91925587    -0.38100
C855        C  0.38345677  0.28099653  0.59025641    -0.04700
C856        C  0.37267520  0.30379843  0.60670006    -0.01900
C857        C  0.37210693  0.30360391  0.63909240     0.03100
C858        C  0.38257419  0.28072267  0.65520803    -0.04700
C859        C  0.39259976  0.25764863  0.63872411    -0.01800
C860        C  0.39285821  0.25771242  0.60642163     0.03100
C861        C  0.36294192  0.32782478  0.59030920     0.37800
C862        C  0.40170217  0.23328305  0.65497155     0.37800
C863        C  0.40156137  0.23315382  0.58990225     0.36200
C864        C  0.36151096  0.32730289  0.65582779     0.36200
N865        N  0.40820079  0.21319672  0.57717811    -0.38600
N866        N  0.35306113  0.34623237  0.66915215    -0.38600
N867        N  0.40883108  0.21363602  0.66763583    -0.38100
N868        N  0.35525059  0.34703506  0.57724474    -0.38100
C869        C  0.25188642  0.41427042  0.84443278    -0.04700
C870        C  0.22802788  0.40542047  0.86115462    -0.01900
C871        C  0.22835284  0.40534598  0.89347441     0.03100
C872        C  0.25239618  0.41450993  0.90924013    -0.04700
C873        C  0.27629702  0.42315876  0.89250877    -0.01800
C874        C  0.27610423  0.42286464  0.86020866     0.03100
C875        C  0.20278992  0.39739962  0.84513262     0.37800
C876        C  0.30138021  0.43174030  0.90848596     0.37800
C877        C  0.30115677  0.43067344  0.84328329     0.36200
C878        C  0.20363649  0.39662330  0.91047449     0.36200
N879        N  0.32141577  0.43677459  0.83018960    -0.38600
N880        N  0.18379076  0.38967417  0.92384170    -0.38600
N881        N  0.32156393  0.43855307  0.92092896    -0.38100
N882        N  0.18254182  0.39121099  0.83245112    -0.38100
C883        C  0.25102905  0.41782537  0.65956438    -0.04700
C884        C  0.23926954  0.44005693  0.64325053    -0.01900
C885        C  0.24004939  0.44044072  0.61087157     0.03100
C886        C  0.25242647  0.41849204  0.59419123    -0.04700
C887        C  0.26479193  0.39665371  0.61055820    -0.01800
C888        C  0.26399411  0.39625169  0.64287061     0.03100
C889        C  0.22546140  0.46232115  0.65955946     0.37800
C890        C  0.27934439  0.37481593  0.59434418     0.37800
C891        C  0.27732539  0.37373066  0.65875445     0.36200
C892        C  0.22741878  0.46333360  0.59494506     0.36200
N893        N  0.28781527  0.35567074  0.67134029    -0.38600
N894        N  0.21748351  0.48173936  0.58239613    -0.38600
N895        N  0.29089664  0.35735187  0.58149193    -0.38100
N896        N  0.21451545  0.48014208  0.67248345    -0.38100
O897        O  0.25300859  0.93806944  0.45727996    -0.71200
O898        O  0.25291463  0.94025003  0.04437162    -0.71400
O899        O  0.29230731  0.93921877  0.50060310    -0.71300
O900        O  0.21332809  0.93921076  0.00119167    -0.71300
O901        O  0.21223786  0.89392974  0.50191812    -0.71200
O902        O  0.29125260  0.89396196  0.00198698    -0.71200
O903        O  0.25127622  0.89515859  0.04537861    -0.71200
O904        O  0.25186737  0.89280236  0.45843966    -0.71400
V905        V  0.25283235  0.93831509  0.50085491     1.35200
V906        V  0.25171688  0.89484702  0.00192038     1.35200
C907        C  0.25239176  0.91505837  0.44310402     0.78100
C908        C  0.25218957  0.91802919  0.05983993     0.78100
C909        C  0.30513003  0.91662105  0.00140348     0.78000
C910        C  0.19944430  0.91655758  0.00155944     0.77900
O911        O  0.28944926  0.89316568  0.25036849    -0.71200
O912        O  0.21042310  0.89355220  0.25254593    -0.71400
O913        O  0.24933434  0.89444554  0.20813157    -0.71300
O914        O  0.25030392  0.89239872  0.29508592    -0.71300
O915        O  0.25192630  0.93766595  0.29640515    -0.71200
O916        O  0.25098764  0.93953662  0.20941167    -0.71200
O917        O  0.21173504  0.93882689  0.25378320    -0.71200
O918        O  0.29073287  0.93843029  0.25165702    -0.71400
V919        V  0.24991878  0.89426804  0.25158950     1.35200
V920        V  0.25125963  0.93773490  0.25285636     1.35200
C921        C  0.30343794  0.91576446  0.25030711     0.78100
C922        C  0.19772688  0.91624516  0.25323007     0.78100
C923        C  0.25031943  0.91729584  0.19381326     0.78000
C924        C  0.25132330  0.91472042  0.31050001     0.77900
O925        O  0.41078575  0.78228686  0.45494776    -0.71200
O926        O  0.40798022  0.78039161  0.04218652    -0.71400
O927        O  0.40916775  0.74191814  0.49731299    -0.71300
O928        O  0.40991058  0.82106541  0.99981962    -0.71300
O929        O  0.36480729  0.82053669  0.49631038    -0.71200
O930        O  0.36392498  0.74125436  0.99862000    -0.71200
O931        O  0.36286091  0.78223782  0.04091674    -0.71200
O932        O  0.36566541  0.77960748  0.45394597    -0.71400
V933        V  0.40859945  0.78144952  0.49854412     1.35200
V934        V  0.36518891  0.78091994  0.99743332     1.35200
C935        C  0.38862906  0.78061493  0.43954016     0.78100
C936        C  0.38490887  0.78131976  0.05635986     0.78100
C937        C  0.38645275  0.72817725  0.99796739     0.78000
C938        C  0.38751793  0.83422001  0.99828817     0.77900
O939        O  0.40675165  0.78017028  0.20300923    -0.71200
O940        O  0.40951731  0.78117003  0.29001204    -0.71400
O941        O  0.40765942  0.74115707  0.24699369    -0.71300
O942        O  0.40868771  0.82039214  0.24623158    -0.71300
O943        O  0.36353705  0.81991747  0.25004629    -0.71200
O944        O  0.36241226  0.74071614  0.24745974    -0.71200
O945        O  0.36438130  0.77927945  0.29220052    -0.71200
O946        O  0.36159630  0.78151628  0.20516117    -0.71400
V947        V  0.40727658  0.78074435  0.24657177     1.35200
V948        V  0.36385296  0.78035187  0.24866771     1.35200
C949        C  0.38373317  0.78093696  0.18929242     0.78100
C950        C  0.38742043  0.78002394  0.30598986     0.78100
C951        C  0.38485825  0.72752482  0.24728785     0.78000
C952        C  0.38629118  0.83356228  0.24835056     0.77900
O953        O  0.21132923  0.66773767  0.00002784    -0.71200
O954        O  0.29048117  0.66674838  0.49900392    -0.71400
O955        O  0.25063793  0.66856885  0.45588878    -0.71300
O956        O  0.25092111  0.66585347  0.04292625    -0.71300
O957        O  0.24940870  0.62064309  0.04127054    -0.71200
O958        O  0.24953493  0.62334115  0.45410563    -0.71200
O959        O  0.28898521  0.62150071  0.99740716    -0.71200
O960        O  0.20979621  0.62248993  0.49817317    -0.71400
V961        V  0.25086576  0.66633492  0.99940787     1.35200
V962        V  0.24944021  0.62287229  0.99772127     1.35200
C963        C  0.19715865  0.64526804  0.99937068     0.78100
C964        C  0.30313006  0.64398371  0.99838233     0.78100
C965        C  0.24993240  0.64639943  0.44017462     0.78000
C966        C  0.25004252  0.64284544  0.05694387     0.77900
O967        O  0.24591462  0.62098760  0.20572695    -0.71200
O968        O  0.24745839  0.62357552  0.29287718    -0.71400
O969        O  0.20687358  0.62258599  0.25059014    -0.71300
O970        O  0.28600523  0.62190705  0.24793915    -0.71300
O971        O  0.28738664  0.66718027  0.24783343    -0.71200
O972        O  0.20816675  0.66778626  0.24806525    -0.71200
O973        O  0.24745328  0.66878839  0.29155340    -0.71200
O974        O  0.24810175  0.66618870  0.20441914    -0.71400
V975        V  0.24651559  0.62314639  0.24928275     1.35200
V976        V  0.24775396  0.66660566  0.24799106     1.35200
C977        C  0.24719304  0.64317697  0.19022032     0.78100
C978        C  0.24771862  0.64661242  0.30704811     0.78100
C979        C  0.19409911  0.64526486  0.24955127     0.78000
C980        C  0.30008289  0.64443212  0.24753140     0.77900
O981        O  0.08953042  0.78197728  0.04587786    -0.71200
O982        O  0.09195543  0.77801296  0.45893337    -0.71400
O983        O  0.09026083  0.74033029  0.00408508    -0.71300
O984        O  0.09147792  0.81951192  0.50047368    -0.71300
O985        O  0.13663345  0.81987567  0.00327351    -0.71200
O986        O  0.13552397  0.74088013  0.50364472    -0.71200
O987        O  0.13710179  0.77986151  0.45978269    -0.71200
O988        O  0.13469016  0.78069785  0.04698604    -0.71400
V989        V  0.09167523  0.77996015  0.00239686     1.35200
V990        V  0.13511183  0.78034972  0.50340160     1.35200
C991        C  0.11167455  0.78173391  0.06122590     0.78100
C992        C  0.11487948  0.77838347  0.44445498     0.78100
C993        C  0.11276894  0.72722660  0.00389139     0.78000
C994        C  0.11430076  0.83306685  0.00164186     0.77900
O995        O  0.08755290  0.78206009  0.20992467    -0.71200
O996        O  0.09018596  0.77771704  0.29695211    -0.71400
O997        O  0.08986340  0.81935865  0.25591185    -0.71300
O998        O  0.08788477  0.74027072  0.25098032    -0.71300
O999        O  0.13313438  0.74033915  0.25098951    -0.71200
O1000       O  0.13494612  0.81935963  0.25111178    -0.71200
O1001       O  0.13530978  0.77980769  0.29477434    -0.71200
O1002       O  0.13264425  0.77970332  0.20781357    -0.71400
V1003       V  0.08971882  0.77984046  0.25341402     1.35200
V1004       V  0.13312804  0.77982861  0.25127427     1.35200
C1005       C  0.10970349  0.78117566  0.19408401     0.78100
C1006       C  0.11321643  0.77836494  0.31077522     0.78100
C1007       C  0.11273164  0.83272989  0.25357600     0.78000
C1008       C  0.11023832  0.72693876  0.25041941     0.77900
O1009       O  0.42761449  0.91600183  0.02590301    -0.71200
O1010       O  0.34863621  0.91779739  0.02638361    -0.71400
O1011       O  0.38643964  0.87742628  0.02465417    -0.71300
O1012       O  0.39000031  0.95671842  0.02769218    -0.71300
O1013       O  0.38718567  0.95789892  0.47809584    -0.71200
O1014       O  0.38957984  0.87882023  0.47498686    -0.71200
O1015       O  0.34901448  0.91627382  0.47660520    -0.71200
O1016       O  0.42791519  0.92056120  0.47666043    -0.71400
V1017       V  0.38816883  0.91703958  0.02524564     1.35200
V1018       V  0.38845186  0.91836594  0.47753098     1.35200
C1019       C  0.44141952  0.91828324  0.50120328     0.78100
C1020       C  0.33546403  0.91680165  0.50149748     0.78100
C1021       C  0.38785851  0.86470274  0.99931553     0.78000
C1022       C  0.38853812  0.97080772  0.00335120     0.77900
O1023       O  0.42604721  0.91981247  0.27234540    -0.71200
O1024       O  0.34732367  0.91466047  0.27378489    -0.71400
O1025       O  0.38826711  0.87764601  0.27319944    -0.71300
O1026       O  0.38491467  0.95681511  0.27275844    -0.71300
O1027       O  0.38824875  0.95640147  0.22310014    -0.71200
O1028       O  0.38498478  0.87723787  0.22357637    -0.71200
O1029       O  0.34696492  0.91748205  0.22410498    -0.71200
O1030       O  0.42618302  0.91587315  0.22298300    -0.71400
V1031       V  0.38667779  0.91723325  0.27207826     1.35200
V1032       V  0.38658860  0.91679507  0.22434147     1.35200
C1033       C  0.43976968  0.91770089  0.24763194     0.78100
C1034       C  0.33377637  0.91581880  0.24927531     0.78100
C1035       C  0.38660112  0.86402860  0.24841287     0.78000
C1036       C  0.38637425  0.97009996  0.24780335     0.77900
O1037       O  0.42677253  0.64353841  0.47679461    -0.71200
O1038       O  0.34771888  0.64428509  0.47460373    -0.71400
O1039       O  0.38852622  0.68360652  0.47430729    -0.71300
O1040       O  0.38595264  0.60434797  0.47727152    -0.71300
O1041       O  0.38727244  0.60612191  0.02697504    -0.71200
O1042       O  0.38438948  0.68504341  0.02389585    -0.71200
O1043       O  0.34622474  0.64344276  0.02437954    -0.71200
O1044       O  0.42545091  0.64786107  0.02631301    -0.71400
V1045       V  0.38722692  0.64398584  0.47668499     1.35200
V1046       V  0.38584882  0.64558741  0.02444169     1.35200
C1047       C  0.43961927  0.64567070  0.00186482     0.78100
C1048       C  0.33356963  0.64375253  0.99913504     0.78100
C1049       C  0.38635573  0.69772568  0.49867967     0.78000
C1050       C  0.38675792  0.59177891  0.50265001     0.77900
O1051       O  0.42326532  0.64582195  0.22186516    -0.71200
O1052       O  0.34395251  0.64264724  0.22214498    -0.71400
O1053       O  0.38287085  0.68370741  0.22229709    -0.71300
O1054       O  0.38438967  0.60464687  0.22142456    -0.71300
O1055       O  0.38083880  0.60425489  0.27107525    -0.71200
O1056       O  0.38566239  0.68355557  0.27195864    -0.71200
O1057       O  0.34384017  0.64544124  0.27186507    -0.71200
O1058       O  0.42277106  0.64228859  0.27146764    -0.71400
V1059       V  0.38359808  0.64418998  0.22286729     1.35200
V1060       V  0.38328868  0.64390135  0.27065600     1.35200
C1061       C  0.43649985  0.64391885  0.24665746     0.78100
C1062       C  0.33050321  0.64415703  0.24712120     0.78100
C1063       C  0.38446224  0.69704890  0.24721121     0.78000
C1064       C  0.38255353  0.59096104  0.24606398     0.77900
O1065       O  0.07438522  0.64342196  0.02736149    -0.71200
O1066       O  0.15355855  0.64344760  0.02531662    -0.71400
O1067       O  0.11470747  0.68301844  0.02757678    -0.71300
O1068       O  0.11322502  0.60394717  0.02495305    -0.71300
O1069       O  0.11574814  0.60511807  0.47544908    -0.71200
O1070       O  0.11127710  0.68391668  0.47796965    -0.71200
O1071       O  0.15299269  0.64735420  0.47573881    -0.71200
O1072       O  0.07382519  0.64145202  0.47766102    -0.71400
V1073       V  0.11394752  0.64347490  0.02536990     1.35200
V1074       V  0.11342632  0.64446767  0.47764028     1.35200
C1075       C  0.06060227  0.64219347  0.50285484     0.78100
C1076       C  0.16669313  0.64552037  0.50017482     0.78100
C1077       C  0.11270916  0.69683737  0.00318271     0.78000
C1078       C  0.11522044  0.59094934  0.99979083     0.77900
O1079       O  0.07035208  0.64082735  0.27302428    -0.71200
O1080       O  0.14972396  0.64611417  0.27422037    -0.71400
O1081       O  0.10828670  0.68295428  0.27430551    -0.71300
O1082       O  0.11204903  0.60434582  0.27338018    -0.71300
O1083       O  0.11049243  0.60414705  0.22386857    -0.71200
O1084       O  0.11160249  0.68343671  0.22460931    -0.71200
O1085       O  0.15060820  0.64409310  0.22447189    -0.71200
O1086       O  0.07153331  0.64359997  0.22337208    -0.71400
V1087       V  0.11007476  0.64358267  0.27277647     1.35200
V1088       V  0.11103216  0.64381265  0.22501212     1.35200
C1089       C  0.05745082  0.64193642  0.24791892     0.78100
C1090       C  0.16359510  0.64531252  0.24946029     0.78100
C1091       C  0.10981394  0.69656428  0.24968033     0.78000
C1092       C  0.11174740  0.59063559  0.24865539     0.77900
O1093       O  0.07742387  0.91838808  0.47567631    -0.71200
O1094       O  0.15614875  0.91402072  0.47645954    -0.71400
O1095       O  0.11366191  0.87653267  0.47634391    -0.71300
O1096       O  0.11988331  0.95543096  0.47553539    -0.71300
O1097       O  0.11476176  0.95616059  0.02488158    -0.71200
O1098       O  0.11700756  0.87714897  0.02597304    -0.71200
O1099       O  0.15542690  0.91873939  0.02599931    -0.71200
O1100       O  0.07653133  0.91462680  0.02502295    -0.71400
V1101       V  0.11677379  0.91605064  0.47689704     1.35200
V1102       V  0.11596140  0.91665019  0.02458204     1.35200
C1103       C  0.06335118  0.91684760  0.00026991     0.78100
C1104       C  0.16914170  0.91647233  0.00134413     0.78100
C1105       C  0.11494399  0.86345388  0.50130383     0.78000
C1106       C  0.11750492  0.96938516  0.49998148     0.77900
O1107       O  0.07582291  0.91295719  0.22586461    -0.71200
O1108       O  0.15475299  0.91770211  0.22756911    -0.71400
O1109       O  0.11671754  0.87586809  0.22788270    -0.71300
O1110       O  0.11371832  0.95481067  0.22569093    -0.71300
O1111       O  0.11688126  0.95593631  0.27511117    -0.71200
O1112       O  0.11083856  0.87707839  0.27731934    -0.71200
O1113       O  0.15331131  0.91467071  0.27723845    -0.71200
O1114       O  0.07452775  0.91872818  0.27506895    -0.71400
V1115       V  0.11526000  0.91534780  0.22763342     1.35200
V1116       V  0.11392463  0.91655181  0.27529699     1.35200
C1117       C  0.06157643  0.91597054  0.25011210     0.78100
C1118       C  0.16739675  0.91629574  0.25270807     0.78100
C1119       C  0.11345721  0.86309572  0.25294958     0.78000
C1120       C  0.11523413  0.96898175  0.25013283     0.77900
C1121       C  0.11292489  0.55947341  0.24900924    -0.04700
C1122       C  0.10319806  0.54422307  0.27494204    -0.01900
C1123       C  0.10363987  0.51488125  0.27506306     0.03100
C1124       C  0.11461171  0.50009399  0.24969072    -0.04700
C1125       C  0.12507910  0.51529964  0.22413636    -0.01800
C1126       C  0.12425929  0.54469465  0.22379873     0.03100
C1127       C  0.09250532  0.55838047  0.30192076     0.37800
C1128       C  0.13762264  0.50093630  0.19832565     0.37800
C1129       C  0.13651024  0.55958278  0.19790121     0.36200
C1130       C  0.09191834  0.50009648  0.30135404     0.36200
N1131       N  0.14641431  0.57131373  0.17725146    -0.38600
N1132       N  0.08274469  0.98846687  0.32247528    -0.38600
N1133       N  0.14777600  0.98967933  0.17777944    -0.38100
N1134       N  0.08412829  0.56943789  0.32362066    -0.38100
C1135       C  0.11705122  0.55985351  0.99902131    -0.04700
C1136       C  0.12845916  0.54546378  0.02409923    -0.01900
C1137       C  0.12891071  0.51609529  0.02424387     0.03100
C1138       C  0.11782956  0.50049818  0.49944126    -0.04700
C1139       C  0.10724254  0.51484615  0.47393160    -0.01800
C1140       C  0.10750175  0.54423904  0.47338653     0.03100
C1141       C  0.14114615  0.56071663  0.04935340     0.37800
C1142       C  0.09500845  0.49954639  0.44843417     0.37800
C1143       C  0.09791836  0.55807311  0.44606673     0.36200
C1144       C  0.14166512  0.50209991  0.04977678     0.36200
N1145       N  0.09058627  0.56884759  0.42400386    -0.38600
N1146       N  0.15163315  0.99101287  0.07020430    -0.38600
N1147       N  0.08545282  0.98750992  0.42785418    -0.38100
N1148       N  0.15136483  0.57276118  0.06948868    -0.38100
C1149       C  0.46743428  0.64330473  0.24671087    -0.04700
C1150       C  0.48109394  0.62082622  0.26033135    -0.01900
C1151       C  0.01046252  0.61997073  0.25998821     0.03100
C1152       C  0.02649610  0.64209525  0.24715846    -0.04700
C1153       C  0.01283143  0.66453996  0.23345449    -0.01800
C1154       C  0.48344910  0.66507365  0.23311105     0.03100
C1155       C  0.46493125  0.59812827  0.27406062     0.37800
C1156       C  0.02901720  0.68748470  0.22026848     0.37800
C1157       C  0.46975824  0.68871261  0.21994153     0.36200
C1158       C  0.02400756  0.59539507  0.27101382     0.36200
N1159       N  0.45901332  0.70773840  0.20955877    -0.38600
N1160       N  0.03432522  0.57532048  0.27932500    -0.38600
N1161       N  0.04191582  0.70576428  0.20971640    -0.38100
N1162       N  0.45209818  0.58004128  0.28509682    -0.38100
C1163       C  0.47058523  0.64473689  0.00252118    -0.04700
C1164       C  0.48634181  0.66484751  0.01907460    -0.01900
C1165       C  0.01569360  0.66368629  0.01964322     0.03100
C1166       C  0.02962773  0.64245583  0.50357935    -0.04700
C1167       C  0.01385917  0.62205028  0.48755406    -0.01800
C1168       C  0.48455123  0.62333936  0.48673174     0.03100
C1169       C  0.47261770  0.68774049  0.03416816     0.37800
C1170       C  0.02757612  0.59876518  0.47323026     0.37800
C1171       C  0.46874088  0.60209492  0.47019393     0.36200
C1172       C  0.03160910  0.68497682  0.03599049     0.36200
N1173       N  0.45612816  0.58520836  0.45695792    -0.38600
N1174       N  0.04431689  0.70191152  0.04904780    -0.38600
N1175       N  0.03805466  0.57978572  0.46204127    -0.38100
N1176       N  0.46211779  0.70635239  0.04608909    -0.38100
C1177       C  0.47100548  0.91700219  0.24791237    -0.04700
C1178       C  0.48507531  0.90794277  0.27442271    -0.01900
C1179       C  0.01439991  0.90700398  0.27482243     0.03100
C1180       C  0.03044031  0.91628957  0.24930795    -0.04700
C1181       C  0.01649995  0.92585222  0.22304055    -0.01800
C1182       C  0.48710548  0.92527248  0.22192938     0.03100
C1183       C  0.46964640  0.89884483  0.30150506     0.37800
C1184       C  0.03222395  0.93754348  0.19736719     0.37800
C1185       C  0.47378482  0.93349859  0.19378672     0.36200
C1186       C  0.02783239  0.89560799  0.30151622     0.36200
N1187       N  0.46343353  0.93983400  0.17111205    -0.38600
N1188       N  0.03838243  0.88647957  0.32283838    -0.38600
N1189       N  0.04465916  0.94705843  0.17695611    -0.38100
N1190       N  0.45753126  0.89189115  0.32331200    -0.38100
C1191       C  0.38306520  0.56001710  0.24569167    -0.04700
C1192       C  0.40537504  0.54621272  0.23137847    -0.01900
C1193       C  0.40672611  0.51689402  0.23251436     0.03100
C1194       C  0.38546658  0.50102204  0.24732034    -0.04700
C1195       C  0.36278778  0.51480553  0.26091637    -0.01800
C1196       C  0.36155218  0.54414080  0.25999157     0.03100
C1197       C  0.42727105  0.56218357  0.21585237     0.37800
C1198       C  0.34006747  0.49881045  0.27484844     0.37800
C1199       C  0.33714194  0.55778996  0.27193722     0.36200
C1200       C  0.43073448  0.50324843  0.21960566     0.36200
N1201       N  0.31728558  0.56830887  0.28102615    -0.38600
N1202       N  0.45006106  0.99271622  0.20935679    -0.38600
N1203       N  0.32184176  0.98636191  0.28626154    -0.38100
N1204       N  0.44467282  0.57489434  0.20334869    -0.38100
C1205       C  0.47266734  0.91812222  0.00091116    -0.04700
C1206       C  0.48797561  0.92562052  0.02746446    -0.01900
C1207       C  0.01736223  0.92619619  0.02682161     0.03100
C1208       C  0.03217221  0.91769320  0.00024863    -0.04700
C1209       C  0.01690716  0.90989281  0.47381166    -0.01800
C1210       C  0.48753378  0.91041700  0.47403387     0.03100
C1211       C  0.47385383  0.93304835  0.05580299     0.37800
C1212       C  0.03111654  0.90069977  0.44617590     0.37800
C1213       C  0.47286477  0.90210580  0.44639856     0.36200
C1214       C  0.03213192  0.93673827  0.05352241     0.36200
N1215       N  0.46136757  0.89563187  0.42423609    -0.38600
N1216       N  0.04375420  0.94528052  0.07478751    -0.38600
N1217       N  0.04225309  0.89342940  0.42400964    -0.38100
N1218       N  0.46288086  0.93878692  0.07862489    -0.38100
C1219       C  0.38699423  0.56087512  0.00378925    -0.04700
C1220       C  0.40902036  0.54711239  0.01806399    -0.01900
C1221       C  0.40952780  0.51768704  0.01828713     0.03100
C1222       C  0.38795016  0.50179699  0.00435890    -0.04700
C1223       C  0.36565958  0.51564897  0.49069131    -0.01800
C1224       C  0.36519193  0.54500848  0.49042709     0.03100
C1225       C  0.43168601  0.56323430  0.03163499     0.37800
C1226       C  0.34258144  0.49972533  0.47776003     0.37800
C1227       C  0.34158494  0.55887783  0.47750094     0.36200
C1228       C  0.43293096  0.50391918  0.03171050     0.36200
N1229       N  0.32256580  0.56979760  0.46741483    -0.38600
N1230       N  0.45161613  0.99329350  0.04241864    -0.38600
N1231       N  0.32394599  0.98719155  0.46717042    -0.38100
N1232       N  0.44978096  0.57607499  0.04243118    -0.38100
C1233       C  0.11547155  0.77733239  0.41024094    -0.04700
C1234       C  0.13408801  0.79476919  0.39338214    -0.01900
C1235       C  0.13353858  0.79489063  0.36102358     0.03100
C1236       C  0.11429907  0.77761556  0.34499327    -0.04700
C1237       C  0.09612615  0.75965677  0.36185913    -0.01800
C1238       C  0.09688575  0.75934642  0.39422591     0.03100
C1239       C  0.15334413  0.81332502  0.40930797     0.37800
C1240       C  0.07712866  0.74075663  0.34597660     0.37800
C1241       C  0.07929887  0.73954597  0.41097327     0.36200
C1242       C  0.15220401  0.81367817  0.34432805     0.36200
N1243       N  0.06542502  0.72364746  0.42433482    -0.38600
N1244       N  0.16712510  0.82855375  0.33091438    -0.38600
N1245       N  0.06194260  0.72569085  0.33336325    -0.38100
N1246       N  0.16875039  0.82794816  0.42217903    -0.38100
C1247       C  0.11066998  0.78177941  0.09521645    -0.04700
C1248       C  0.12139241  0.75912714  0.11139361    -0.01900
C1249       C  0.12042770  0.75875482  0.14365211     0.03100
C1250       C  0.10905222  0.78119815  0.16010846    -0.04700
C1251       C  0.09795342  0.80376411  0.14399176    -0.01800
C1252       C  0.09874954  0.80404694  0.11159297     0.03100
C1253       C  0.13256746  0.73567787  0.09474234     0.37800
C1254       C  0.08654440  0.82707892  0.16074312     0.37800
C1255       C  0.08827503  0.82771926  0.09514533     0.36200
C1256       C  0.13006730  0.73465054  0.15993664     0.36200
N1257       N  0.08001336  0.84665884  0.08203142    -0.38600
N1258       N  0.13747274  0.71532866  0.17297790    -0.38600
N1259       N  0.07746841  0.84568133  0.17412660    -0.38100
N1260       N  0.14131263  0.71697780  0.08130435    -0.38100
C1261       C  0.24970856  0.64734093  0.40612429    -0.04700
C1262       C  0.22864250  0.66150128  0.39056109    -0.01900
C1263       C  0.22809209  0.66155230  0.35816530     0.03100
C1264       C  0.24864455  0.64750962  0.34110266    -0.04700
C1265       C  0.27022581  0.63425691  0.35671345    -0.01800
C1266       C  0.27065464  0.63401495  0.38902651     0.03100
C1267       C  0.20701124  0.67530446  0.40787245     0.37800
C1268       C  0.29300879  0.62226720  0.33958863     0.37800
C1269       C  0.29346273  0.62110692  0.40465960     0.36200
C1270       C  0.20594574  0.67545918  0.34240947     0.36200
N1271       N  0.31184804  0.61097923  0.41694921    -0.38600
N1272       N  0.18831426  0.68656668  0.32979972    -0.38600
N1273       N  0.31157260  0.61304743  0.32626096    -0.38100
N1274       N  0.18975262  0.68631690  0.42168074    -0.38100
C1275       C  0.24909120  0.64214482  0.09103945    -0.04700
C1276       C  0.26766153  0.62569014  0.10765911    -0.01900
C1277       C  0.26699450  0.62588077  0.14007048     0.03100
C1278       C  0.24761321  0.64235797  0.15610873    -0.04700
C1279       C  0.22889401  0.65852797  0.13942812    -0.01800
C1280       C  0.22960979  0.65839307  0.10711952     0.03100
C1281       C  0.28824845  0.60945375  0.09147028     0.37800
C1282       C  0.20834475  0.67480076  0.15555574     0.37800
C1283       C  0.20964768  0.67434158  0.09028186     0.36200
C1284       C  0.28720031  0.61018867  0.15690432     0.36200
N1285       N  0.19391477  0.68689866  0.07640078    -0.38600
N1286       N  0.30339444  0.59781823  0.17038156    -0.38600
N1287       N  0.19205541  0.68773086  0.16865909    -0.38100
N1288       N  0.30469971  0.59654295  0.07854707    -0.38100
C1289       C  0.38931825  0.77967543  0.40534125    -0.04700
C1290       C  0.37104837  0.76134678  0.38933027    -0.01900
C1291       C  0.37042871  0.76147244  0.35699314     0.03100
C1292       C  0.38846597  0.77953486  0.34014693    -0.04700
C1293       C  0.40750390  0.79706931  0.35611009    -0.01800
C1294       C  0.40782816  0.79725777  0.38848220     0.03100
C1295       C  0.35364407  0.74135723  0.40603361     0.37800
C1296       C  0.42627036  0.81566113  0.33928357     0.37800
C1297       C  0.42666182  0.81631964  0.40433995     0.36200
C1298       C  0.35180276  0.74219043  0.34110174     0.36200
N1299       N  0.44172202  0.83149459  0.41696775    -0.38600
N1300       N  0.33694295  0.72682174  0.32845429    -0.38600
N1301       N  0.44129406  0.83030237  0.32570046    -0.38100
N1302       N  0.33989173  0.72529692  0.41930772    -0.38100
C1303       C  0.38370611  0.78104510  0.09036218    -0.04700
C1304       C  0.37293844  0.80384989  0.10681160    -0.01900
C1305       C  0.37238607  0.80365474  0.13920307     0.03100
C1306       C  0.38285994  0.78077186  0.15531139    -0.04700
C1307       C  0.39287521  0.75769792  0.13882318    -0.01800
C1308       C  0.39310816  0.75775932  0.10652197     0.03100
C1309       C  0.36315541  0.82785889  0.09042742     0.37800
C1310       C  0.40194231  0.73331469  0.15506294     0.37800
C1311       C  0.40171482  0.73316971  0.09000065     0.36200
C1312       C  0.36175205  0.82733437  0.15594315     0.36200
N1313       N  0.40824982  0.71317792  0.07727652    -0.38600
N1314       N  0.35325686  0.84624476  0.16926470    -0.38600
N1315       N  0.40903120  0.71364682  0.16771654    -0.38100
N1316       N  0.35541170  0.84705213  0.07737220    -0.38100
C1317       C  0.25179086  0.91405682  0.34439532    -0.04700
C1318       C  0.22793337  0.90518005  0.36110654    -0.01900
C1319       C  0.22825448  0.90508364  0.39343018     0.03100
C1320       C  0.25230326  0.91422627  0.40920394    -0.04700
C1321       C  0.27621728  0.92284386  0.39247985    -0.01800
C1322       C  0.27601423  0.92261174  0.36018205     0.03100
C1323       C  0.20270278  0.89715626  0.34507132     0.37800
C1324       C  0.30132788  0.93132616  0.40846350     0.37800
C1325       C  0.30105590  0.93047571  0.34326756     0.36200
C1326       C  0.20353339  0.89635928  0.41042410     0.36200
N1327       N  0.32130441  0.93663285  0.33018500    -0.38600
N1328       N  0.18368444  0.88940721  0.42378571    -0.38600
N1329       N  0.32153620  0.93805123  0.42091069    -0.38100
N1330       N  0.18246201  0.89096037  0.33237868    -0.38100
C1331       C  0.25112284  0.91790624  0.15952375    -0.04700
C1332       C  0.23944983  0.94019175  0.14321567    -0.01900
C1333       C  0.24017007  0.94054657  0.11083239     0.03100
C1334       C  0.25246088  0.91855200  0.09414727    -0.04700
C1335       C  0.26480158  0.89669588  0.11050923    -0.01800
C1336       C  0.26400283  0.89628570  0.14281972     0.03100
C1337       C  0.22579622  0.96254728  0.15953330     0.37800
C1338       C  0.27933856  0.87484831  0.09429128     0.37800
C1339       C  0.27723949  0.87369539  0.15868688     0.36200
C1340       C  0.22755400  0.96344897  0.09490728     0.36200
N1341       N  0.28765154  0.85557538  0.17124978    -0.38600
N1342       N  0.21762023  0.98185656  0.08235983    -0.38600
N1343       N  0.29088796  0.85738237  0.08143814    -0.38100
N1344       N  0.21497958  0.98044690  0.17246060    -0.38100
O1345       O  0.25300948  0.93806831  0.95727955    -0.71200
O1346       O  0.25291605  0.94025222  0.54437212    -0.71400
O1347       O  0.29230696  0.93921682  0.00060361    -0.71300
O1348       O  0.21332829  0.93921197  0.50119349    -0.71300
O1349       O  0.21223711  0.89392857  0.00191858    -0.71200
O1350       O  0.29125313  0.89396401  0.50199018    -0.71200
O1351       O  0.25127536  0.89516087  0.54537961    -0.71200
O1352       O  0.25186527  0.89280121  0.95843868    -0.71400
V1353       V  0.25283209  0.93831344  0.00085440     1.35200
V1354       V  0.25171751  0.89484870  0.50192149     1.35200
C1355       C  0.25239124  0.91505739  0.94310340     0.78100
C1356       C  0.25219004  0.91803156  0.55984069     0.78100
C1357       C  0.30513045  0.91662309  0.50140552     0.78000
C1358       C  0.19944479  0.91655858  0.50156029     0.77900
O1359       O  0.28944799  0.89316413  0.75036784    -0.71200
O1360       O  0.21042185  0.89355123  0.75254717    -0.71400
O1361       O  0.24933235  0.89444509  0.70813177    -0.71300
O1362       O  0.25030339  0.89239709  0.79508596    -0.71300
O1363       O  0.25192561  0.93766434  0.79640564    -0.71200
O1364       O  0.25098668  0.93953607  0.70941278    -0.71200
O1365       O  0.21173412  0.93882591  0.75378450    -0.71200
O1366       O  0.29073191  0.93842870  0.75165755    -0.71400
V1367       V  0.24991752  0.89426686  0.75158966     1.35200
V1368       V  0.25125871  0.93773370  0.75285716     1.35200
C1369       C  0.30343683  0.91576281  0.75030703     0.78100
C1370       C  0.19772579  0.91624426  0.75323200     0.78100
C1371       C  0.25031811  0.91729563  0.69381392     0.78000
C1372       C  0.25132283  0.91471872  0.81050015     0.77900
O1373       O  0.41078969  0.78228624  0.95494810    -0.71200
O1374       O  0.40797821  0.78039088  0.54218607    -0.71400
O1375       O  0.40917069  0.74191808  0.99731439    -0.71300
O1376       O  0.40990810  0.82106527  0.49982026    -0.71300
O1377       O  0.36480970  0.82053626  0.99631034    -0.71200
O1378       O  0.36392209  0.74125445  0.49862178    -0.71200
O1379       O  0.36285899  0.78223900  0.54091744    -0.71200
O1380       O  0.36566933  0.77960810  0.95394506    -0.71400
V1381       V  0.40860230  0.78144956  0.99854451     1.35200
V1382       V  0.36518607  0.78092019  0.49743411     1.35200
C1383       C  0.38863333  0.78061505  0.93953987     0.78100
C1384       C  0.38490721  0.78132019  0.55635997     0.78100
C1385       C  0.38644989  0.72817728  0.49796762     0.78000
C1386       C  0.38751569  0.83422020  0.49828884     0.77900
O1387       O  0.40675356  0.78017140  0.70300806    -0.71200
O1388       O  0.40952261  0.78117136  0.79001083    -0.71400
O1389       O  0.40766357  0.74115812  0.74699219    -0.71300
O1390       O  0.40869050  0.82039336  0.74623033    -0.71300
O1391       O  0.36354006  0.81991768  0.75004896    -0.71200
O1392       O  0.36241640  0.74071670  0.74745838    -0.71200
O1393       O  0.36438668  0.77927827  0.79220104    -0.71200
O1394       O  0.36159832  0.78151831  0.70516203    -0.71400
V1395       V  0.40728017  0.78074551  0.74657053     1.35200
V1396       V  0.36385662  0.78035230  0.74866837     1.35200
C1397       C  0.38373458  0.78093861  0.68929230     0.78100
C1398       C  0.38742627  0.78002385  0.80598948     0.78100
C1399       C  0.38486250  0.72752561  0.74728573     0.78000
C1400       C  0.38629377  0.83356297  0.74835163     0.77900
O1401       O  0.21132868  0.66773416  0.50002742    -0.71200
O1402       O  0.29048185  0.66675096  0.99900172    -0.71400
O1403       O  0.25063752  0.66857191  0.95588799    -0.71300
O1404       O  0.25091955  0.66585019  0.54292697    -0.71300
O1405       O  0.24940878  0.62063975  0.54127108    -0.71200
O1406       O  0.24953512  0.62334417  0.95410497    -0.71200
O1407       O  0.28898520  0.62149816  0.49740804    -0.71200
O1408       O  0.20979644  0.62249347  0.99817256    -0.71400
V1409       V  0.25086516  0.66633180  0.49940865     1.35200
V1410       V  0.24944011  0.62286916  0.49772190     1.35200
C1411       C  0.19715824  0.64526446  0.49937058     0.78100
C1412       C  0.30312970  0.64398136  0.49838458     0.78100
C1413       C  0.24993237  0.64640243  0.94017393     0.78000
C1414       C  0.25004195  0.64284207  0.55694440     0.77900
O1415       O  0.24591725  0.62098731  0.70572746    -0.71200
O1416       O  0.24746204  0.62357736  0.79287740    -0.71400
O1417       O  0.20687668  0.62258675  0.75059123    -0.71300
O1418       O  0.28600841  0.62190818  0.74793885    -0.71300
O1419       O  0.28738951  0.66718140  0.74783208    -0.71200
O1420       O  0.20816967  0.66778693  0.74806445    -0.71200
O1421       O  0.24745626  0.66879021  0.79155241    -0.71200
O1422       O  0.24810432  0.66618842  0.70441819    -0.71400
V1423       V  0.24651873  0.62314725  0.74928310     1.35200
V1424       V  0.24775684  0.66660651  0.74799010     1.35200
C1425       C  0.24719549  0.64317628  0.69022020     0.78100
C1426       C  0.24772179  0.64661455  0.80704767     0.78100
C1427       C  0.19410212  0.64526556  0.74955158     0.78000
C1428       C  0.30008592  0.64443336  0.74753018     0.77900
O1429       O  0.08953252  0.78197553  0.54587761    -0.71200
O1430       O  0.09195167  0.77801202  0.95893374    -0.71400
O1431       O  0.09026408  0.74033005  0.50408336    -0.71300
O1432       O  0.09147571  0.81951232  0.00047256    -0.71300
O1433       O  0.13663565  0.81987592  0.50327491    -0.71200
O1434       O  0.13552073  0.74088011  0.00364457    -0.71200
O1435       O  0.13709808  0.77986080  0.95978206    -0.71200
O1436       O  0.13469230  0.78069723  0.54698665    -0.71400
V1437       V  0.09167808  0.77995980  0.50239656     1.35200
V1438       V  0.13510899  0.78034961  0.00340096     1.35200
C1439       C  0.11167643  0.78173237  0.56122606     0.78100
C1440       C  0.11487547  0.77838259  0.94445489     0.78100
C1441       C  0.11277221  0.72722651  0.50389058     0.78000
C1442       C  0.11430270  0.83306679  0.50164349     0.77900
O1443       O  0.08755340  0.78205985  0.70992361    -0.71200
O1444       O  0.09018261  0.77771683  0.79695111    -0.71400
O1445       O  0.08986077  0.81935868  0.75591086    -0.71300
O1446       O  0.08788497  0.74027051  0.75097904    -0.71300
O1447       O  0.13313461  0.74034060  0.75099074    -0.71200
O1448       O  0.13494372  0.81936093  0.75111343    -0.71200
O1449       O  0.13530649  0.77980893  0.79477567    -0.71200
O1450       O  0.13264493  0.77970464  0.70781471    -0.71400
V1451       V  0.08971748  0.77984035  0.75341297     1.35200
V1452       V  0.13312682  0.77982992  0.75127553     1.35200
C1453       C  0.10970463  0.78117600  0.69408405     0.78100
C1454       C  0.11321245  0.77836549  0.81077538     0.78100
C1455       C  0.11272882  0.83273059  0.75357671     0.78000
C1456       C  0.11023908  0.72693940  0.75041933     0.77900
O1457       O  0.42761476  0.91600137  0.52590810    -0.71200
O1458       O  0.34863608  0.91779667  0.52638721    -0.71400
O1459       O  0.38643959  0.87742566  0.52465675    -0.71300
O1460       O  0.39000008  0.95671778  0.52769865    -0.71300
O1461       O  0.38718280  0.95789771  0.97808953    -0.71200
O1462       O  0.38958149  0.87881909  0.97498430    -0.71200
O1463       O  0.34901364  0.91627017  0.97660174    -0.71200
O1464       O  0.42791458  0.92056207  0.97665539    -0.71400
V1465       V  0.38816885  0.91703899  0.52525008     1.35200
V1466       V  0.38845115  0.91836471  0.97752653     1.35200
C1467       C  0.44141907  0.91828416  0.00119816     0.78100
C1468       C  0.33546365  0.91679977  0.00149434     0.78100
C1469       C  0.38785700  0.86470299  0.49931747     0.78000
C1470       C  0.38853941  0.97080801  0.50335818     0.77900
O1471       O  0.42604509  0.91981531  0.77234948    -0.71200
O1472       O  0.34732190  0.91465804  0.77378591    -0.71400
O1473       O  0.38826786  0.87764633  0.77320134    -0.71300
O1474       O  0.38491019  0.95681510  0.77276145    -0.71300
O1475       O  0.38824753  0.95640212  0.72310335    -0.71200
O1476       O  0.38498565  0.87723867  0.72357824    -0.71200
O1477       O  0.34696452  0.91748185  0.72410614    -0.71200
O1478       O  0.42618279  0.91587498  0.72298719    -0.71400
V1479       V  0.38667590  0.91723341  0.77208080     1.35200
V1480       V  0.38658828  0.91679580  0.72434403     1.35200
C1481       C  0.43976853  0.91770393  0.74763667     0.78100
C1482       C  0.33377528  0.91581712  0.74927595     0.78100
C1483       C  0.38660271  0.86402920  0.74841450     0.78000
C1484       C  0.38637114  0.97010023  0.74780659     0.77900
O1485       O  0.42677261  0.64353944  0.97678870    -0.71200
O1486       O  0.34771873  0.64428698  0.97459980    -0.71400
O1487       O  0.38852662  0.68360775  0.97430469    -0.71300
O1488       O  0.38595251  0.60434929  0.97726339    -0.71300
O1489       O  0.38727319  0.60612361  0.52698302    -0.71200
O1490       O  0.38438642  0.68504462  0.52389812    -0.71200
O1491       O  0.34622378  0.64344223  0.52438348    -0.71200
O1492       O  0.42545017  0.64786472  0.52631849    -0.71400
V1493       V  0.38722693  0.64398712  0.97667987     1.35200
V1494       V  0.38584790  0.64558886  0.52444665     1.35200
C1495       C  0.43961882  0.64567242  0.50187065     0.78100
C1496       C  0.33356924  0.64375081  0.49913852     0.78100
C1497       C  0.38635809  0.69772569  0.99867805     0.78000
C1498       C  0.38675766  0.59177872  0.00264092     0.77900
O1499       O  0.42326751  0.64582247  0.72185807    -0.71200
O1500       O  0.34395461  0.64264928  0.72214175    -0.71400
O1501       O  0.38287377  0.68370883  0.72229334    -0.71300
O1502       O  0.38439082  0.60464802  0.72141838    -0.71300
O1503       O  0.38084189  0.60425514  0.77106919    -0.71200
O1504       O  0.38566727  0.68355564  0.77195471    -0.71200
O1505       O  0.34384419  0.64544208  0.77186189    -0.71200
O1506       O  0.42277499  0.64228806  0.77146042    -0.71400
V1507       V  0.38360022  0.64419127  0.72286220     1.35200
V1508       V  0.38329265  0.64390154  0.77065087     1.35200
C1509       C  0.43650295  0.64391860  0.74664970     0.78100
C1510       C  0.33050626  0.64415848  0.74711863     0.78100
C1511       C  0.38446647  0.69704966  0.74720783     0.78000
C1512       C  0.38255499  0.59096169  0.74605754     0.77900
O1513       O  0.07438515  0.64342641  0.52736372    -0.71200
O1514       O  0.15355833  0.64344405  0.52531685    -0.71400
O1515       O  0.11471136  0.68301881  0.52757673    -0.71300
O1516       O  0.11322093  0.60394741  0.52495512    -0.71300
O1517       O  0.11575043  0.60511881  0.97544691    -0.71200
O1518       O  0.11127670  0.68391724  0.97796940    -0.71200
O1519       O  0.15299345  0.64735615  0.97573839    -0.71200
O1520       O  0.07382629  0.64145141  0.97765866    -0.71400
V1521       V  0.11394740  0.64347523  0.52537107     1.35200
V1522       V  0.11342724  0.64446831  0.97763905     1.35200
C1523       C  0.06060281  0.64219024  0.00285221     0.78100
C1524       C  0.16669359  0.64552376  0.00017472     0.78100
C1525       C  0.11271210  0.69683731  0.50318247     0.78000
C1526       C  0.11521630  0.59094898  0.49979322     0.77900
O1527       O  0.07035468  0.64082901  0.77302279    -0.71200
O1528       O  0.14972668  0.64611356  0.77422039    -0.71400
O1529       O  0.10829024  0.68295486  0.77430523    -0.71300
O1530       O  0.11205055  0.60434642  0.77337913    -0.71300
O1531       O  0.11049689  0.60414801  0.72386756    -0.71200
O1532       O  0.11160423  0.68343759  0.72460891    -0.71200
O1533       O  0.15061152  0.64409535  0.72447180    -0.71200
O1534       O  0.07153691  0.64359945  0.72337047    -0.71400
V1535       V  0.11007741  0.64358326  0.77277576     1.35200
V1536       V  0.11103552  0.64381356  0.72501141     1.35200
C1537       C  0.05745394  0.64193691  0.74791699     0.78100
C1538       C  0.16359811  0.64531324  0.74946043     0.78100
C1539       C  0.10981603  0.69656498  0.74968008     0.78000
C1540       C  0.11175003  0.59063624  0.74865433     0.77900
O1541       O  0.07742341  0.91838792  0.97567441    -0.71200
O1542       O  0.15614836  0.91402089  0.97645817    -0.71400
O1543       O  0.11366141  0.87653276  0.97634205    -0.71300
O1544       O  0.11988274  0.95543123  0.97553395    -0.71300
O1545       O  0.11476216  0.95616066  0.52488300    -0.71200
O1546       O  0.11700868  0.87714904  0.52597484    -0.71200
O1547       O  0.15542758  0.91873994  0.52600061    -0.71200
O1548       O  0.07653194  0.91462691  0.52502487    -0.71400
V1549       V  0.11677334  0.91605077  0.97689538     1.35200
V1550       V  0.11596209  0.91665031  0.52458368     1.35200
C1551       C  0.06335174  0.91684822  0.50027189     0.78100
C1552       C  0.16914222  0.91647281  0.50134532     0.78100
C1553       C  0.11494277  0.86345391  0.00130201     0.78000
C1554       C  0.11750448  0.96938530  0.99998017     0.77900
O1555       O  0.07582083  0.91296162  0.72587247    -0.71200
O1556       O  0.15475090  0.91770285  0.72757341    -0.71400
O1557       O  0.11671359  0.87587030  0.72788590    -0.71300
O1558       O  0.11371800  0.95481327  0.72570019    -0.71300
O1559       O  0.11688215  0.95593602  0.77512044    -0.71200
O1560       O  0.11083717  0.87707797  0.77732294    -0.71200
O1561       O  0.15331110  0.91466911  0.77724260    -0.71200
O1562       O  0.07452748  0.91872932  0.77507726    -0.71400
V1563       V  0.11525790  0.91535021  0.72763962     1.35200
V1564       V  0.11392434  0.91655150  0.77530332     1.35200
C1565       C  0.06157525  0.91597428  0.75012070     0.78100
C1566       C  0.16739562  0.91629506  0.75271161     0.78100
C1567       C  0.11345411  0.86309655  0.75295206     0.78000
C1568       C  0.11523510  0.96898289  0.75014303     0.77900
C1569       C  0.11292633  0.55947379  0.74900821    -0.04700
C1570       C  0.10320431  0.54422410  0.77494372    -0.01900
C1571       C  0.10364488  0.51488224  0.77506500     0.03100
C1572       C  0.11461049  0.50009402  0.74969003    -0.04700
C1573       C  0.12507308  0.51529885  0.72413279    -0.01800
C1574       C  0.12425422  0.54469391  0.72379479     0.03100
C1575       C  0.09251773  0.55838200  0.80192514     0.37800
C1576       C  0.13761076  0.50093469  0.69831910     0.37800
C1577       C  0.13649866  0.55958063  0.69789270     0.36200
C1578       C  0.09192867  0.50009855  0.80135950     0.36200
N1579       N  0.14639724  0.57131025  0.67723901    -0.38600
N1580       N  0.08274792  0.98846711  0.82248742    -0.38600
N1581       N  0.14778344  0.98968131  0.67779389    -0.38100
N1582       N  0.08414574  0.56943963  0.82362731    -0.38100
C1583       C  0.11704531  0.55985293  0.49902421    -0.04700
C1584       C  0.12845038  0.54546264  0.52410332    -0.01900
C1585       C  0.12890100  0.51609410  0.52424797     0.03100
C1586       C  0.11783539  0.50049901  0.99943969    -0.04700
C1587       C  0.10724559  0.51484636  0.97393110    -0.01800
C1588       C  0.10750603  0.54423919  0.97338475     0.03100
C1589       C  0.14113536  0.56071492  0.54935917     0.37800
C1590       C  0.09500743  0.49954604  0.94843645     0.37800
C1591       C  0.09792340  0.55807266  0.94606425     0.36200
C1592       C  0.14164980  0.50209847  0.54978419     0.36200
N1593       N  0.09059275  0.56884646  0.92400040    -0.38600
N1594       N  0.15163256  0.99101384  0.57020614    -0.38600
N1595       N  0.08545144  0.98751139  0.92785371    -0.38100
N1596       N  0.15135251  0.57275896  0.56949570    -0.38100
C1597       C  0.46743745  0.64330372  0.74670210    -0.04700
C1598       C  0.48109680  0.62082735  0.76032738    -0.01900
C1599       C  0.01046545  0.61997322  0.75998958     0.03100
C1600       C  0.02649928  0.64209535  0.74715529    -0.04700
C1601       C  0.01283499  0.66453687  0.73344452    -0.01800
C1602       C  0.48345270  0.66507027  0.73309820     0.03100
C1603       C  0.46493364  0.59812997  0.77405711     0.37800
C1604       C  0.02902115  0.68747874  0.72025293     0.37800
C1605       C  0.46976255  0.68870709  0.71992318     0.36200
C1606       C  0.02401072  0.59540120  0.77102483     0.36200
N1607       N  0.45901880  0.70773150  0.70953597    -0.38600
N1608       N  0.03432928  0.57533002  0.77934451    -0.38600
N1609       N  0.04192028  0.70575583  0.70969635    -0.38100
N1610       N  0.45209987  0.58004333  0.78509308    -0.38100
C1611       C  0.47058474  0.64473918  0.50252707    -0.04700
C1612       C  0.48634174  0.66485684  0.51906982    -0.01900
C1613       C  0.01569373  0.66369624  0.51963704     0.03100
C1614       C  0.02962816  0.64245205  0.00357596    -0.04700
C1615       C  0.01386004  0.62205317  0.98754003    -0.01800
C1616       C  0.48455219  0.62334299  0.98671638     0.03100
C1617       C  0.47261754  0.68775534  0.53415301     0.37800
C1618       C  0.02757716  0.59877377  0.97320496     0.37800
C1619       C  0.46874238  0.60210457  0.97016875     0.36200
C1620       C  0.03161003  0.68499354  0.53597289     0.36200
N1621       N  0.45613008  0.58522280  0.95692510    -0.38600
N1622       N  0.04431848  0.70193373  0.54902101    -0.38600
N1623       N  0.03805547  0.57979876  0.96200634    -0.38100
N1624       N  0.46211703  0.70637138  0.54606518    -0.38100
C1625       C  0.47100435  0.91700680  0.74791856    -0.04700
C1626       C  0.48507371  0.90794952  0.77443015    -0.01900
C1627       C  0.01439832  0.90701104  0.77483191     0.03100
C1628       C  0.03043917  0.91629539  0.74931719    -0.04700
C1629       C  0.01649927  0.92585822  0.72304955    -0.01800
C1630       C  0.48710482  0.92527669  0.72193579     0.03100
C1631       C  0.46964436  0.89885328  0.80151292     0.37800
C1632       C  0.03222360  0.93755132  0.69737735     0.37800
C1633       C  0.47378477  0.93350133  0.69379223     0.36200
C1634       C  0.02783020  0.89561735  0.80152722     0.36200
N1635       N  0.46343398  0.93983568  0.67111689    -0.38600
N1636       N  0.03837970  0.88649090  0.82285083    -0.38600
N1637       N  0.04465904  0.94706797  0.67696742    -0.38100
N1638       N  0.45752889  0.89190095  0.82332014    -0.38100
C1639       C  0.38306471  0.56001758  0.74568459    -0.04700
C1640       C  0.40537249  0.54621193  0.73136898    -0.01900
C1641       C  0.40672162  0.51689300  0.73250392     0.03100
C1642       C  0.38546270  0.50102214  0.74731253    -0.04700
C1643       C  0.36278550  0.51480694  0.76091024    -0.01800
C1644       C  0.36155176  0.54414239  0.75998621     0.03100
C1645       C  0.42726881  0.56218179  0.71584217     0.37800
C1646       C  0.34006463  0.49881290  0.77484273     0.37800
C1647       C  0.33714384  0.55779309  0.77193560     0.36200
C1648       C  0.43072718  0.50324596  0.71959061     0.36200
N1649       N  0.31728955  0.56831347  0.78102799    -0.38600
N1650       N  0.45006327  0.99271561  0.70937089    -0.38600
N1651       N  0.32183267  0.98636256  0.78625265    -0.38100
N1652       N  0.44467082  0.57489192  0.70333811    -0.38100
C1653       C  0.47266783  0.91812126  0.50091578    -0.04700
C1654       C  0.48797672  0.92562117  0.52746815    -0.01900
C1655       C  0.01736338  0.92619856  0.52682383     0.03100
C1656       C  0.03217280  0.91769464  0.50025090    -0.04700
C1657       C  0.01690710  0.90989209  0.97380875    -0.01800
C1658       C  0.48753380  0.91041809  0.97402954     0.03100
C1659       C  0.47385564  0.93304768  0.55580740     0.37800
C1660       C  0.03111693  0.90069670  0.94617421     0.37800
C1661       C  0.47286544  0.90210946  0.94639301     0.36200
C1662       C  0.03213373  0.93674484  0.55352230     0.36200
N1663       N  0.46136880  0.89563766  0.92422940    -0.38600
N1664       N  0.04375665  0.94529085  0.57478520    -0.38600
N1665       N  0.04225387  0.89342409  0.92400913    -0.38100
N1666       N  0.46288337  0.93878476  0.57863025    -0.38100
C1667       C  0.38699335  0.56087528  0.50380053    -0.04700
C1668       C  0.40901861  0.54711227  0.51807650    -0.01900
C1669       C  0.40952635  0.51768686  0.51829838     0.03100
C1670       C  0.38794922  0.50179700  0.50436886    -0.04700
C1671       C  0.36566097  0.51564863  0.99067999    -0.01800
C1672       C  0.36519322  0.54500813  0.99041527     0.03100
C1673       C  0.43168267  0.56323391  0.53165104     0.37800
C1674       C  0.34258355  0.49972469  0.97774762     0.37800
C1675       C  0.34158691  0.55887724  0.97748727     0.36200
C1676       C  0.43292940  0.50391906  0.53172183     0.36200
N1677       N  0.32256840  0.56979674  0.96739937    -0.38600
N1678       N  0.45160562  0.99329494  0.54244950    -0.38600
N1679       N  0.32393810  0.98719174  0.96717741    -0.38100
N1680       N  0.44977614  0.57607434  0.54245050    -0.38100
C1681       C  0.11546696  0.77733210  0.91024092    -0.04700
C1682       C  0.13408181  0.79477081  0.89338241    -0.01900
C1683       C  0.13353173  0.79489315  0.86102396     0.03100
C1684       C  0.11429393  0.77761649  0.84499341    -0.04700
C1685       C  0.09612225  0.75965615  0.86185891    -0.01800
C1686       C  0.09688210  0.75934532  0.89422571     0.03100
C1687       C  0.15333703  0.81332733  0.90930847     0.37800
C1688       C  0.07712596  0.74075514  0.84597603     0.37800
C1689       C  0.07929667  0.73954343  0.91097291     0.36200
C1690       C  0.15219454  0.81368344  0.84432865     0.36200
N1691       N  0.06542409  0.72364378  0.92433428    -0.38600
N1692       N  0.16711325  0.82856115  0.83091481    -0.38600
N1693       N  0.06194079  0.72568861  0.83336236    -0.38100
N1694       N  0.16874272  0.82795091  0.92217985    -0.38100
C1695       C  0.11067146  0.78177791  0.59521655    -0.04700
C1696       C  0.12139330  0.75912561  0.61139414    -0.01900
C1697       C  0.12042923  0.75875418  0.64365271     0.03100
C1698       C  0.10905434  0.78119813  0.66010851    -0.04700
C1699       C  0.09795592  0.80376395  0.64399135    -0.01800
C1700       C  0.09875182  0.80404612  0.61159260     0.03100
C1701       C  0.13256690  0.73567537  0.59474333     0.37800
C1702       C  0.08654745  0.82707932  0.66074222     0.37800
C1703       C  0.08827775  0.82771833  0.59514448     0.36200
C1704       C  0.13006903  0.73465039  0.65993788     0.36200
N1705       N  0.08001638  0.84665781  0.58203012    -0.38600
N1706       N  0.13747475  0.71532897  0.67297976    -0.38600
N1707       N  0.07747193  0.84568214  0.67412537    -0.38100
N1708       N  0.14131080  0.71697441  0.58130585    -0.38100
C1709       C  0.24970918  0.64734385  0.90612366    -0.04700
C1710       C  0.22864058  0.66149980  0.89055981    -0.01900
C1711       C  0.22809146  0.66155132  0.85816400     0.03100
C1712       C  0.24864699  0.64751233  0.84110212    -0.04700
C1713       C  0.27023006  0.63426318  0.85671357    -0.01800
C1714       C  0.27065854  0.63402216  0.88902665     0.03100
C1715       C  0.20700538  0.67529761  0.90787051     0.37800
C1716       C  0.29301445  0.62227531  0.83958932     0.37800
C1717       C  0.29346938  0.62111975  0.90466058     0.36200
C1718       C  0.20594341  0.67545468  0.84240728     0.36200
N1719       N  0.31185703  0.61099687  0.91695090    -0.38600
N1720       N  0.18831064  0.68655949  0.82979674    -0.38600
N1721       N  0.31157899  0.61305662  0.82626197    -0.38100
N1722       N  0.18974344  0.68630554  0.92167820    -0.38100
C1723       C  0.24909109  0.64214139  0.59103979    -0.04700
C1724       C  0.26766467  0.62569026  0.60765926    -0.01900
C1725       C  0.26699863  0.62588189  0.64007061     0.03100
C1726       C  0.24761496  0.64235631  0.65610880    -0.04700
C1727       C  0.22889231  0.65852237  0.63942837    -0.01800
C1728       C  0.22960715  0.65838656  0.60711982     0.03100
C1729       C  0.28825351  0.60945647  0.59147019     0.37800
C1730       C  0.20834063  0.67479186  0.65555623     0.37800
C1731       C  0.20964150  0.67433061  0.59028210     0.36200
C1732       C  0.28720768  0.61019392  0.65690444     0.36200
N1733       N  0.19390572  0.68688391  0.57640082    -0.38600
N1734       N  0.30340441  0.59782685  0.67038166    -0.38600
N1735       N  0.19204932  0.68771925  0.66865990    -0.38100
N1736       N  0.30470622  0.59654765  0.57854675    -0.38100
C1737       C  0.38932333  0.77967551  0.90534092    -0.04700
C1738       C  0.37105477  0.76134579  0.88932961    -0.01900
C1739       C  0.37043677  0.76147023  0.85699242     0.03100
C1740       C  0.38847255  0.77953428  0.84014652    -0.04700
C1741       C  0.40750856  0.79707062  0.85610997    -0.01800
C1742       C  0.40783261  0.79725880  0.88848217     0.03100
C1743       C  0.35364933  0.74135711  0.90603277     0.37800
C1744       C  0.42627268  0.81566497  0.83928367     0.37800
C1745       C  0.42666500  0.81632165  0.90434037     0.36200
C1746       C  0.35181422  0.74218520  0.84110056     0.36200
N1747       N  0.44172417  0.83149736  0.91696854    -0.38600
N1748       N  0.33695745  0.72681394  0.82845256    -0.38600
N1749       N  0.44129431  0.83030856  0.82570085    -0.38100
N1750       N  0.33989565  0.72529783  0.91930673    -0.38100
C1751       C  0.38370510  0.78104588  0.59036222    -0.04700
C1752       C  0.37293699  0.80385048  0.60681165    -0.01900
C1753       C  0.37238530  0.80365566  0.63920312     0.03100
C1754       C  0.38286016  0.78077317  0.65531134    -0.04700
C1755       C  0.39287551  0.75769932  0.63882306    -0.01800
C1756       C  0.39310820  0.75776053  0.60652191     0.03100
C1757       C  0.36315305  0.82785915  0.59042751     0.37800
C1758       C  0.40194278  0.73331612  0.65506267     0.37800
C1759       C  0.40171634  0.73317138  0.59000060     0.36200
C1760       C  0.36175093  0.82733511  0.65594323     0.36200
N1761       N  0.40825298  0.71318007  0.57727653    -0.38600
N1762       N  0.35325533  0.84624539  0.66926472    -0.38600
N1763       N  0.40903159  0.71364804  0.66771582    -0.38100
N1764       N  0.35540860  0.84705213  0.57737244    -0.38100
C1765       C  0.25179052  0.91405516  0.84439521    -0.04700
C1766       C  0.22793318  0.90517814  0.86110636    -0.01900
C1767       C  0.22825417  0.90508223  0.89342989     0.03100
C1768       C  0.25230275  0.91422557  0.90920349    -0.04700
C1769       C  0.27621646  0.92284416  0.89247945    -0.01800
C1770       C  0.27601344  0.92261175  0.86018171     0.03100
C1771       C  0.20270253  0.89715449  0.84507118     0.37800
C1772       C  0.30132659  0.93132819  0.90846301     0.37800
C1773       C  0.30105434  0.93047797  0.84326700     0.36200
C1774       C  0.20353290  0.89635843  0.91042381     0.36200
N1775       N  0.32130203  0.93663723  0.83018400    -0.38600
N1776       N  0.18368370  0.88940700  0.92378535    -0.38600
N1777       N  0.32153448  0.93805480  0.92091009    -0.38100
N1778       N  0.18246166  0.89095903  0.83237859    -0.38100
C1779       C  0.25112226  0.91790690  0.65952445    -0.04700
C1780       C  0.23945348  0.94019502  0.64321678    -0.01900
C1781       C  0.24017456  0.94055076  0.61083354     0.03100
C1782       C  0.25246185  0.91855436  0.59414804    -0.04700
C1783       C  0.26479933  0.89669614  0.61050967    -0.01800
C1784       C  0.26399964  0.89628497  0.64282007     0.03100
C1785       C  0.22580356  0.96255277  0.65953468     0.37800
C1786       C  0.27933438  0.87484729  0.59429155     0.37800
C1787       C  0.27723278  0.87369219  0.65868664     0.36200
C1788       C  0.22756337  0.96345629  0.59490903     0.36200
N1789       N  0.28764217  0.85557015  0.67124889    -0.38600
N1790       N  0.21763345  0.98186655  0.58236235    -0.38600
N1791       N  0.29088234  0.85738042  0.58143842    -0.38100
N1792       N  0.21498999  0.98045415  0.67246214    -0.38100
O1793       O  0.75309988  0.43826482  0.45737337    -0.71200
O1794       O  0.75294104  0.44026075  0.04446232    -0.71400
O1795       O  0.79236784  0.43933674  0.50072847    -0.71300
O1796       O  0.71337804  0.43927655  0.00126343    -0.71300
O1797       O  0.71232013  0.39399491  0.50190550    -0.71200
O1798       O  0.79133503  0.39407666  0.00196424    -0.71200
O1799       O  0.75135984  0.39516656  0.04537153    -0.71200
O1800       O  0.75195687  0.39299515  0.45842211    -0.71400
V1801       V  0.75288774  0.43841278  0.50094767     1.35200
V1802       V  0.75180285  0.39494275  0.00190766     1.35200
C1803       C  0.75249397  0.41528344  0.44314144     0.78100
C1804       C  0.75222440  0.41801343  0.05988236     0.78100
C1805       C  0.80520362  0.41674028  0.00144727     0.78000
C1806       C  0.69950944  0.41661086  0.00159524     0.77900
O1807       O  0.78945334  0.39320800  0.25045656    -0.71200
O1808       O  0.71042781  0.39360160  0.25263209    -0.71400
O1809       O  0.74934083  0.39441862  0.20821049    -0.71300
O1810       O  0.75031549  0.39252557  0.29517368    -0.71300
O1811       O  0.75205295  0.43779310  0.29639408    -0.71200
O1812       O  0.75088278  0.43951373  0.20941065    -0.71200
O1813       O  0.71173899  0.43887512  0.25390251    -0.71200
O1814       O  0.79073937  0.43847616  0.25152177    -0.71400
V1815       V  0.74992469  0.39431568  0.25167297     1.35200
V1816       V  0.75126729  0.43778422  0.25285122     1.35200
C1817       C  0.80344260  0.41580552  0.25026673     0.78100
C1818       C  0.69772902  0.41629281  0.25335207     0.78100
C1819       C  0.75025529  0.41724995  0.19385294     0.78000
C1820       C  0.75141422  0.41487387  0.31053799     0.77900
O1821       O  0.91081880  0.28223174  0.45489951    -0.71200
O1822       O  0.90782985  0.28040683  0.04213760    -0.71400
O1823       O  0.90908454  0.24190503  0.49730646    -0.71300
O1824       O  0.90987778  0.32105899  0.99974341    -0.71300
O1825       O  0.86477493  0.32056316  0.49621719    -0.71200
O1826       O  0.86384002  0.24126788  0.99839180    -0.71200
O1827       O  0.86271084  0.28219798  0.04075760    -0.71200
O1828       O  0.86569879  0.27967564  0.45378944    -0.71400
V1829       V  0.90853855  0.28143852  0.49849640     1.35200
V1830       V  0.86513225  0.28093878  0.99727586     1.35200
C1831       C  0.88869152  0.28059788  0.43943723     0.78100
C1832       C  0.88472834  0.28129518  0.05625497     0.78100
C1833       C  0.88636102  0.22817614  0.99783757     0.78000
C1834       C  0.88749581  0.33423371  0.99821761     0.77900
O1835       O  0.90655092  0.28014372  0.20285126    -0.71200
O1836       O  0.90950116  0.28111882  0.28984333    -0.71400
O1837       O  0.90753998  0.24113458  0.24681826    -0.71300
O1838       O  0.90859425  0.32035879  0.24608040    -0.71300
O1839       O  0.86345265  0.31990403  0.25003558    -0.71200
O1840       O  0.86229217  0.24070389  0.24738040    -0.71200
O1841       O  0.86437085  0.27923057  0.29214672    -0.71200
O1842       O  0.86140117  0.28152561  0.20511172    -0.71400
V1843       V  0.90716807  0.28071376  0.24640971     1.35200
V1844       V  0.86374870  0.28033715  0.24861603     1.35200
C1845       C  0.88350628  0.28091789  0.18918865     0.78100
C1846       C  0.88743942  0.27995357  0.30587946     0.78100
C1847       C  0.88473694  0.22751079  0.24716216     0.78000
C1848       C  0.88621013  0.33353882  0.24828248     0.77900
O1849       O  0.71120813  0.16776635  0.00013708    -0.71200
O1850       O  0.79036616  0.16676803  0.49912405    -0.71400
O1851       O  0.75053836  0.16868873  0.45599960    -0.71300
O1852       O  0.75078921  0.16578913  0.04304238    -0.71300
O1853       O  0.74937224  0.12057871  0.04127203    -0.71200
O1854       O  0.74935235  0.12346431  0.45410680    -0.71200
O1855       O  0.78886513  0.12152594  0.99731178    -0.71200
O1856       O  0.70967570  0.12252030  0.49826348    -0.71400
V1857       V  0.75074817  0.16636118  0.99952013     1.35200
V1858       V  0.74932232  0.12290152  0.99772400     1.35200
C1859       C  0.69703533  0.14529680  0.99948511     0.78100
C1860       C  0.80301222  0.14400338  0.99836602     0.78100
C1861       C  0.74980267  0.14655095  0.44023006     0.78000
C1862       C  0.74996943  0.14274988  0.05700000     0.77900
O1863       O  0.74586796  0.12085921  0.20582811    -0.71200
O1864       O  0.74740087  0.12365419  0.29298560    -0.71400
O1865       O  0.70681623  0.12257053  0.25069489    -0.71300
O1866       O  0.78594915  0.12187009  0.24805011    -0.71300
O1867       O  0.78733658  0.16714232  0.24777819    -0.71200
O1868       O  0.70811748  0.16776619  0.24808002    -0.71200
O1869       O  0.74743128  0.16886450  0.29153597    -0.71200
O1870       O  0.74801360  0.16606044  0.20440151    -0.71400
V1871       V  0.74646009  0.12312081  0.24938686     1.35200
V1872       V  0.74770323  0.16657731  0.24797462     1.35200
C1873       C  0.74712176  0.14301704  0.19026484     0.78100
C1874       C  0.74767847  0.14672416  0.30709368     0.78100
C1875       C  0.69404579  0.14525060  0.24961965     0.78000
C1876       C  0.80002963  0.14439176  0.24754914     0.77900
O1877       O  0.58935223  0.28200403  0.04598585    -0.71200
O1878       O  0.59188334  0.27801555  0.45904156    -0.71400
O1879       O  0.59010384  0.24034678  0.00419049    -0.71300
O1880       O  0.59140955  0.31953882  0.50056506    -0.71300
O1881       O  0.63656016  0.31984764  0.00347389    -0.71200
O1882       O  0.63536416  0.24086096  0.50379401    -0.71200
O1883       O  0.63703125  0.27985901  0.45995739    -0.71200
O1884       O  0.63450509  0.28065286  0.04716402    -0.71400
V1885       V  0.59155614  0.27998013  0.00250359     1.35200
V1886       V  0.63498730  0.28032647  0.50357655     1.35200
C1887       C  0.61147391  0.28172043  0.06137129     0.78100
C1888       C  0.61482533  0.27837824  0.44460022     0.78100
C1889       C  0.61260318  0.22722553  0.00400417     0.78000
C1890       C  0.61425160  0.33306746  0.00178218     0.77900
O1891       O  0.58748633  0.28213477  0.21012714    -0.71200
O1892       O  0.59021299  0.27767328  0.29713821    -0.71400
O1893       O  0.58987352  0.31937177  0.25616660    -0.71300
O1894       O  0.58785947  0.24029433  0.25111418    -0.71300
O1895       O  0.63310972  0.24035151  0.25112656    -0.71200
O1896       O  0.63494667  0.31935551  0.25123817    -0.71200
O1897       O  0.63533707  0.27981911  0.29491765    -0.71200
O1898       O  0.63256950  0.27970786  0.20794497    -0.71400
V1899       V  0.58970479  0.27985827  0.25360832     1.35200
V1900       V  0.63311169  0.27983439  0.25141095     1.35200
C1901       C  0.60961243  0.28122088  0.19424932     0.78100
C1902       C  0.61325390  0.27833692  0.31093708     0.78100
C1903       C  0.61274378  0.33273082  0.25376439     0.78000
C1904       C  0.61021137  0.22695989  0.25054240     0.77900
O1905       O  0.92767495  0.41593686  0.02596844    -0.71200
O1906       O  0.84870734  0.41786675  0.02642602    -0.71400
O1907       O  0.88644094  0.37742221  0.02464436    -0.71300
O1908       O  0.89013207  0.45671604  0.02780084    -0.71300
O1909       O  0.88731005  0.45795793  0.47820723    -0.71200
O1910       O  0.88961121  0.37887218  0.47498179    -0.71200
O1911       O  0.84908767  0.41638274  0.47664625    -0.71200
O1912       O  0.92799554  0.42057228  0.47673126    -0.71400
V1913       V  0.88823527  0.41703917  0.02529698     1.35200
V1914       V  0.88852935  0.41842205  0.47758454     1.35200
C1915       C  0.94148573  0.41824253  0.50127719     0.78100
C1916       C  0.83553487  0.41691364  0.50153857     0.78100
C1917       C  0.88786016  0.36472389  0.99928827     0.78000
C1918       C  0.88868072  0.47083608  0.00348012     0.77900
O1919       O  0.92605576  0.41974340  0.27229795    -0.71200
O1920       O  0.84732781  0.41467995  0.27373263    -0.71400
O1921       O  0.88822332  0.37761975  0.27314543    -0.71300
O1922       O  0.88495699  0.45680279  0.27269711    -0.71300
O1923       O  0.88829259  0.45637873  0.22303897    -0.71200
O1924       O  0.88494406  0.37721865  0.22352179    -0.71200
O1925       O  0.84696829  0.41750469  0.22405280    -0.71200
O1926       O  0.92618494  0.41580477  0.22293372    -0.71400
V1927       V  0.88668177  0.41721269  0.27202499     1.35200
V1928       V  0.88659188  0.41677343  0.22428792     1.35200
C1929       C  0.93977357  0.41761076  0.24758372     0.78100
C1930       C  0.83378035  0.41585043  0.24922479     0.78100
C1931       C  0.88654173  0.36400546  0.24835670     0.78000
C1932       C  0.88641932  0.47008341  0.24773737     0.77900
O1933       O  0.92662860  0.14356013  0.47651853    -0.71200
O1934       O  0.84756089  0.14426404  0.47449035    -0.71400
O1935       O  0.88834206  0.18361221  0.47413713    -0.71300
O1936       O  0.88582584  0.10434600  0.47704424    -0.71300
O1937       O  0.88716202  0.10609356  0.02675073    -0.71200
O1938       O  0.88435223  0.18502565  0.02373950    -0.71200
O1939       O  0.84614865  0.14346313  0.02427016    -0.71200
O1940       O  0.92536958  0.14781085  0.02605010    -0.71400
V1941       V  0.88707514  0.14398684  0.47648832     1.35200
V1942       V  0.88577104  0.14556586  0.02425098     1.35200
C1943       C  0.93950276  0.14566763  0.00157461     0.78100
C1944       C  0.83345233  0.14376114  0.99905262     0.78100
C1945       C  0.88624822  0.19772045  0.49852701     0.78000
C1946       C  0.88663731  0.09176059  0.50241264     0.77900
O1947       O  0.92321083  0.14584426  0.22185053    -0.71200
O1948       O  0.84389463  0.14257287  0.22214926    -0.71400
O1949       O  0.88276228  0.18367353  0.22222781    -0.71300
O1950       O  0.88438307  0.10462480  0.22148126    -0.71300
O1951       O  0.88083245  0.10429383  0.27113276    -0.71200
O1952       O  0.88557431  0.18358553  0.27188939    -0.71200
O1953       O  0.84379263  0.14544216  0.27186390    -0.71200
O1954       O  0.92272310  0.14236180  0.27145796    -0.71400
V1955       V  0.88354155  0.14416333  0.22286030     1.35200
V1956       V  0.88324089  0.14393569  0.27064979     1.35200
C1957       C  0.93644870  0.14397767  0.24664557     0.78100
C1958       C  0.83045011  0.14411426  0.24712660     0.78100
C1959       C  0.88434726  0.19704336  0.24712275     0.78000
C1960       C  0.88256185  0.09097121  0.24614261     0.77900
O1961       O  0.57420975  0.14342822  0.02732918    -0.71200
O1962       O  0.65340202  0.14342501  0.02539987    -0.71400
O1963       O  0.61454669  0.18300309  0.02764539    -0.71300
O1964       O  0.61305255  0.10393587  0.02496080    -0.71300
O1965       O  0.61569397  0.10514043  0.47546085    -0.71200
O1966       O  0.61112206  0.18393456  0.47803853    -0.71200
O1967       O  0.65288589  0.14742191  0.47583029    -0.71200
O1968       O  0.57372714  0.14142880  0.47762540    -0.71400
V1969       V  0.61378246  0.14346370  0.02540392     1.35200
V1970       V  0.61332187  0.14448760  0.47767426     1.35200
C1971       C  0.56046608  0.14218752  0.50279230     0.78100
C1972       C  0.66656459  0.14554817  0.50027565     0.78100
C1973       C  0.61253739  0.19683760  0.00326470     0.78000
C1974       C  0.61511525  0.09095551  0.99979509     0.77900
O1975       O  0.57029778  0.14087886  0.27309878    -0.71200
O1976       O  0.64967231  0.14612632  0.27429835    -0.71400
O1977       O  0.60824165  0.18297611  0.27440273    -0.71300
O1978       O  0.61198516  0.10437271  0.27344541    -0.71300
O1979       O  0.61039746  0.10418729  0.22393716    -0.71200
O1980       O  0.61159045  0.18347677  0.22470853    -0.71200
O1981       O  0.65055221  0.14409025  0.22455066    -0.71200
O1982       O  0.57148176  0.14369876  0.22345003    -0.71400
V1983       V  0.61002074  0.14360993  0.27285586     1.35200
V1984       V  0.61097825  0.14385515  0.22509252     1.35200
C1985       C  0.55739823  0.14203570  0.24799516     0.78100
C1986       C  0.66354151  0.14530817  0.24953694     0.78100
C1987       C  0.60978507  0.19659256  0.24978486     0.78000
C1988       C  0.61167482  0.09066763  0.24871772     0.77900
O1989       O  0.57746741  0.41839049  0.47576740    -0.71200
O1990       O  0.65618997  0.41400545  0.47652333    -0.71400
O1991       O  0.61367495  0.37652349  0.47645022    -0.71300
O1992       O  0.61993082  0.45542322  0.47559214    -0.71300
O1993       O  0.61481745  0.45617124  0.02494133    -0.71200
O1994       O  0.61705875  0.37716343  0.02607839    -0.71200
O1995       O  0.65549195  0.41876541  0.02605987    -0.71200
O1996       O  0.57659045  0.41463950  0.02511794    -0.71400
V1997       V  0.61681317  0.41604256  0.47697606     1.35200
V1998       V  0.61602114  0.41666490  0.02466266     1.35200
C1999       C  0.56340623  0.41685109  0.00036630     0.78100
C2000       C  0.66919985  0.41649341  0.00139910     0.78100
C2001       C  0.61494662  0.36345547  0.50141889     0.78000
C2002       C  0.61754960  0.46938380  0.50003423     0.77900
O2003       O  0.57584394  0.41285282  0.22589222    -0.71200
O2004       O  0.65476307  0.41769748  0.22767518    -0.71400
O2005       O  0.61677093  0.37582741  0.22802069    -0.71300
O2006       O  0.61368870  0.45475456  0.22570128    -0.71300
O2007       O  0.61680786  0.45594135  0.27512373    -0.71200
O2008       O  0.61084427  0.37709319  0.27745062    -0.71200
O2009       O  0.65329117  0.41472950  0.27734795    -0.71200
O2010       O  0.57448780  0.41867736  0.27509117    -0.71400
V2011       V  0.61527347  0.41529856  0.22770521     1.35200
V2012       V  0.61389485  0.41655969  0.27536706     1.35200
C2013       C  0.56156862  0.41586031  0.25011832     0.78100
C2014       C  0.66739376  0.41633597  0.25282507     0.78100
C2015       C  0.61348389  0.36308696  0.25310276     0.78000
C2016       C  0.61517250  0.46895448  0.25012480     0.77900
C2017       C  0.61289048  0.05950383  0.24906268    -0.04700
C2018       C  0.60325512  0.04423670  0.27502486    -0.01900
C2019       C  0.60371968  0.01489409  0.27513024     0.03100
C2020       C  0.61467905  0.00012496  0.24973865    -0.04700
C2021       C  0.62511241  0.01535016  0.22418296    -0.01800
C2022       C  0.62420169  0.04474100  0.22382591     0.03100
C2023       C  0.59264511  0.05837582  0.30205562     0.37800
C2024       C  0.63773914  0.00101281  0.19840398     0.37800
C2025       C  0.63632256  0.05964306  0.19786740     0.36200
C2026       C  0.59203394  0.00008913  0.30142546     0.36200
N2027       N  0.64611226  0.07138642  0.17716302    -0.38600
N2028       N  0.58260714  0.48849107  0.32240495    -0.38600
N2029       N  0.64757766  0.48958122  0.17766885    -0.38100
N2030       N  0.58434814  0.06941933  0.32380200    -0.38100
C2031       C  0.61696743  0.05986138  0.99901138    -0.04700
C2032       C  0.62836103  0.04546660  0.02409355    -0.01900
C2033       C  0.62881381  0.01609667  0.02423237     0.03100
C2034       C  0.61779002  0.00050453  0.49939662    -0.04700
C2035       C  0.60725586  0.01486237  0.47386225    -0.01800
C2036       C  0.60746334  0.04425573  0.47335276     0.03100
C2037       C  0.64103621  0.06071838  0.04935574     0.37800
C2038       C  0.59515272  0.99957350  0.44828297     0.37800
C2039       C  0.59784625  0.05810355  0.44605596     0.36200
C2040       C  0.64152804  0.00209795  0.04978895     0.36200
N2041       N  0.59047477  0.06889314  0.42401922    -0.38600
N2042       N  0.65180097  0.49101609  0.07017332    -0.38600
N2043       N  0.58518585  0.48747257  0.42808375    -0.38100
N2044       N  0.65125066  0.07276235  0.06949414    -0.38100
C2045       C  0.96738316  0.14337888  0.24670843    -0.04700
C2046       C  0.98104507  0.12090921  0.26034481    -0.01900
C2047       C  0.51041415  0.12008461  0.26006347     0.03100
C2048       C  0.52644443  0.14220926  0.24723283    -0.04700
C2049       C  0.51277876  0.16465101  0.23351895    -0.01800
C2050       C  0.98339480  0.16516761  0.23314282     0.03100
C2051       C  0.96488471  0.09819094  0.27403497     0.37800
C2052       C  0.52896196  0.18761812  0.22037645     0.37800
C2053       C  0.96969483  0.18880676  0.21998149     0.36200
C2054       C  0.52397698  0.09555828  0.27119931     0.36200
N2055       N  0.95893447  0.20782853  0.20960825    -0.38600
N2056       N  0.53433655  0.07554289  0.27961748    -0.38600
N2057       N  0.54185390  0.20592115  0.20986332    -0.38100
N2058       N  0.95205377  0.08008589  0.28503800    -0.38100
C2059       C  0.97046330  0.14477569  0.00220528    -0.04700
C2060       C  0.98619697  0.16505026  0.01854046    -0.01900
C2061       C  0.51554360  0.16385916  0.01923146     0.03100
C2062       C  0.52949287  0.14247118  0.50343860    -0.04700
C2063       C  0.51374401  0.12195946  0.48754740    -0.01800
C2064       C  0.98443783  0.12324586  0.48665682     0.03100
C2065       C  0.97244272  0.18813314  0.03324323     0.37800
C2066       C  0.52747958  0.09858690  0.47342544     0.37800
C2067       C  0.96863234  0.10187678  0.47030580     0.36200
C2068       C  0.53143986  0.18525828  0.03542865     0.36200
N2069       N  0.95602152  0.08488652  0.45722522    -0.38600
N2070       N  0.54412949  0.20227725  0.04837664    -0.38600
N2071       N  0.53797586  0.07954368  0.46239317    -0.38100
N2072       N  0.96187997  0.20688770  0.04481337    -0.38100
C2073       C  0.97100627  0.41686279  0.24786090    -0.04700
C2074       C  0.98506379  0.40769484  0.27433277    -0.01900
C2075       C  0.51438662  0.40670536  0.27471814     0.03100
C2076       C  0.53043533  0.41611377  0.24926722    -0.04700
C2077       C  0.51650843  0.42574071  0.22302180    -0.01800
C2078       C  0.98711483  0.42517843  0.22190221     0.03100
C2079       C  0.96962274  0.39854889  0.30138672     0.37800
C2080       C  0.53224704  0.43745230  0.19737069     0.37800
C2081       C  0.97380215  0.43347858  0.19378284     0.36200
C2082       C  0.52781332  0.39508661  0.30129519     0.36200
N2083       N  0.96345424  0.43987157  0.17112687    -0.38600
N2084       N  0.53836437  0.38575971  0.32250951    -0.38600
N2085       N  0.54469555  0.44697421  0.17697313    -0.38100
N2086       N  0.95749576  0.39156310  0.32317390    -0.38100
C2087       C  0.88308365  0.06003117  0.24581514    -0.04700
C2088       C  0.90533798  0.04621436  0.23140914    -0.01900
C2089       C  0.90667099  0.01689579  0.23253081     0.03100
C2090       C  0.88543988  0.00103680  0.24740142    -0.04700
C2091       C  0.86282772  0.01483470  0.26111704    -0.01800
C2092       C  0.86162395  0.04417156  0.26023323     0.03100
C2093       C  0.92720732  0.06217114  0.21581941     0.37800
C2094       C  0.84013535  0.99885524  0.27512515     0.37800
C2095       C  0.83730638  0.05784522  0.27238240     0.36200
C2096       C  0.93063851  0.00323694  0.21954415     0.36200
N2097       N  0.81753393  0.06839340  0.28165616    -0.38600
N2098       N  0.95018640  0.49273709  0.20947291    -0.38600
N2099       N  0.82175631  0.48630390  0.28592991    -0.38100
N2100       N  0.94459118  0.07486830  0.20326932    -0.38100
C2101       C  0.97273144  0.41806865  0.00100312    -0.04700
C2102       C  0.98803282  0.42562421  0.02754127    -0.01900
C2103       C  0.51741854  0.42622009  0.02689923     0.03100
C2104       C  0.53223026  0.41767692  0.00034459    -0.04700
C2105       C  0.51696654  0.40979130  0.47393111    -0.01800
C2106       C  0.98759384  0.41029208  0.47415150     0.03100
C2107       C  0.97390308  0.43308527  0.05586458     0.37800
C2108       C  0.53118186  0.40053249  0.44632577     0.37800
C2109       C  0.97292078  0.40187156  0.44655770     0.36200
C2110       C  0.53218547  0.43682426  0.05357246     0.36200
N2111       N  0.96141612  0.39530499  0.42443004    -0.38600
N2112       N  0.54380738  0.44541624  0.07481565    -0.38600
N2113       N  0.54232499  0.39320941  0.42418624    -0.38100
N2114       N  0.96292340  0.43884907  0.07867366    -0.38100
C2115       C  0.88687649  0.06085150  0.00354093    -0.04700
C2116       C  0.90886242  0.04708989  0.01789523    -0.01900
C2117       C  0.90935681  0.01766493  0.01815589     0.03100
C2118       C  0.88780795  0.00176928  0.00418438    -0.04700
C2119       C  0.86556728  0.01561470  0.49041242    -0.01800
C2120       C  0.86511845  0.04497634  0.49009553     0.03100
C2121       C  0.93151227  0.06320958  0.03149956     0.37800
C2122       C  0.84251280  0.99968043  0.47744175     0.37800
C2123       C  0.84157584  0.05883722  0.47701943     0.36200
C2124       C  0.93271714  0.00389795  0.03167275     0.36200
N2125       N  0.82260860  0.06974592  0.46680168    -0.38600
N2126       N  0.95187152  0.49332311  0.04237677    -0.38600
N2127       N  0.82399184  0.48725388  0.46751224    -0.38100
N2128       N  0.94960083  0.07604397  0.04231670    -0.38100
C2129       C  0.61545724  0.27731681  0.41039288    -0.04700
C2130       C  0.63393068  0.29491608  0.39355611    -0.01900
C2131       C  0.63341521  0.29502107  0.36119630     0.03100
C2132       C  0.61434672  0.27757106  0.34515058    -0.04700
C2133       C  0.59631415  0.25945846  0.36199695    -0.01800
C2134       C  0.59704106  0.25916766  0.39436566     0.03100
C2135       C  0.65296890  0.31367095  0.40951620     0.37800
C2136       C  0.57749363  0.24039838  0.34608953     0.37800
C2137       C  0.57959113  0.23924564  0.41110834     0.36200
C2138       C  0.65190823  0.31398011  0.34451046     0.36200
N2139       N  0.56582565  0.22325373  0.42446827    -0.38600
N2140       N  0.66668538  0.32899714  0.33109788    -0.38600
N2141       N  0.56244935  0.22520533  0.33345369    -0.38100
N2142       N  0.66818831  0.32845590  0.42243344    -0.38100
C2143       C  0.61043430  0.28175778  0.09536711    -0.04700
C2144       C  0.62120776  0.25913474  0.11155117    -0.01900
C2145       C  0.62027797  0.25878252  0.14381082     0.03100
C2146       C  0.60890756  0.28122609  0.16026967    -0.04700
C2147       C  0.59774025  0.30375590  0.14414849    -0.01800
C2148       C  0.59847627  0.30400615  0.11174466     0.03100
C2149       C  0.63241457  0.23569796  0.09490633     0.37800
C2150       C  0.58633992  0.32707673  0.16089666     0.37800
C2151       C  0.58790374  0.32762862  0.09529058     0.36200
C2152       C  0.62995754  0.23469979  0.16009962     0.36200
N2153       N  0.57955924  0.34652372  0.08216571    -0.38600
N2154       N  0.63739458  0.21539960  0.17315460    -0.38600
N2155       N  0.57727746  0.34568807  0.17427665    -0.38100
N2156       N  0.64119142  0.21701250  0.08147004    -0.38100
C2157       C  0.74962994  0.14755192  0.40617708    -0.04700
C2158       C  0.72850346  0.16160271  0.39059234    -0.01900
C2159       C  0.72796668  0.16163078  0.35819224     0.03100
C2160       C  0.74860763  0.14769547  0.34114921    -0.04700
C2161       C  0.77027246  0.13460085  0.35678159    -0.01800
C2162       C  0.77067961  0.13436722  0.38909677     0.03100
C2163       C  0.70680759  0.17532098  0.40788722     0.37800
C2164       C  0.79314402  0.12275685  0.33967269     0.37800
C2165       C  0.79356091  0.12161043  0.40475203     0.36200
C2166       C  0.70574282  0.17539088  0.34241143     0.36200
N2167       N  0.81200801  0.11160738  0.41705595    -0.38600
N2168       N  0.68804596  0.18637803  0.32978236    -0.38600
N2169       N  0.81177367  0.11365755  0.32635217    -0.38100
N2170       N  0.68950149  0.18627117  0.42168455    -0.38100
C2171       C  0.74900852  0.14198060  0.09109137    -0.04700
C2172       C  0.76783309  0.12581032  0.10770131    -0.01900
C2173       C  0.76715460  0.12597240  0.14011653     0.03100
C2174       C  0.74751527  0.14214000  0.15615695    -0.04700
C2175       C  0.72852287  0.15798960  0.13948401    -0.01800
C2176       C  0.72925114  0.15788785  0.10717565     0.03100
C2177       C  0.78867679  0.10991527  0.09149639     0.37800
C2178       C  0.70768171  0.17387450  0.15562890     0.37800
C2179       C  0.70903208  0.17350710  0.09033552     0.36200
C2180       C  0.78758490  0.11057890  0.15695605     0.36200
N2181       N  0.69309018  0.18579439  0.07644946    -0.38600
N2182       N  0.80395445  0.09844533  0.17043974    -0.38600
N2183       N  0.69115080  0.18647661  0.16875754    -0.38100
N2184       N  0.80533480  0.09728020  0.07855859    -0.38100
C2185       C  0.88943502  0.27958365  0.40523733    -0.04700
C2186       C  0.87108315  0.26132414  0.38924277    -0.01900
C2187       C  0.87045351  0.26143481  0.35690592     0.03100
C2188       C  0.88855518  0.27941850  0.34003761    -0.04700
C2189       C  0.90771849  0.29683099  0.35598390    -0.01800
C2190       C  0.90806434  0.29702399  0.38835755     0.03100
C2191       C  0.85359901  0.24141456  0.40596457     0.37800
C2192       C  0.92660021  0.31529642  0.33914322     0.37800
C2193       C  0.92705979  0.31593927  0.40419119     0.36200
C2194       C  0.85174497  0.24221409  0.34104102     0.36200
N2195       N  0.94225863  0.33099235  0.41679310    -0.38600
N2196       N  0.83681997  0.22689016  0.32842057    -0.38600
N2197       N  0.94171831  0.32983475  0.32555161    -0.38100
N2198       N  0.83978428  0.22541725  0.41925379    -0.38100
C2199       C  0.88346063  0.28099601  0.09025574    -0.04700
C2200       C  0.87267916  0.30379800  0.10669929    -0.01900
C2201       C  0.87211052  0.30360328  0.13909152     0.03100
C2202       C  0.88257707  0.28072170  0.15520706    -0.04700
C2203       C  0.89260227  0.25764744  0.13872322    -0.01800
C2204       C  0.89286160  0.25771164  0.10642079     0.03100
C2205       C  0.86294629  0.32782459  0.09030852     0.37800
C2206       C  0.90170267  0.23328102  0.15497051     0.37800
C2207       C  0.90156529  0.23315327  0.08990119     0.36200
C2208       C  0.86151452  0.32730225  0.15582695     0.36200
N2209       N  0.90820524  0.21319655  0.07717667    -0.38600
N2210       N  0.85306461  0.34623164  0.16915140    -0.38600
N2211       N  0.90882971  0.21363301  0.16763431    -0.38100
N2212       N  0.85525516  0.34703511  0.07724429    -0.38100
C2213       C  0.75189043  0.41427105  0.34443346    -0.04700
C2214       C  0.72803223  0.40541877  0.36115445    -0.01900
C2215       C  0.72835582  0.40534542  0.39347427     0.03100
C2216       C  0.75239765  0.41451225  0.40924088    -0.04700
C2217       C  0.77629841  0.42316286  0.39251045    -0.01800
C2218       C  0.77610697  0.42286776  0.36021027     0.03100
C2219       C  0.70279602  0.39739387  0.34513138     0.37800
C2220       C  0.80138023  0.43174699  0.40848874     0.37800
C2221       C  0.80115995  0.43067699  0.34328593     0.36200
C2222       C  0.70363944  0.39662137  0.41047352     0.36200
N2223       N  0.82141953  0.43677803  0.33019324    -0.38600
N2224       N  0.68379381  0.38967145  0.42384049    -0.38600
N2225       N  0.82156276  0.43856184  0.42093279    -0.38100
N2226       N  0.68254955  0.39120184  0.33244859    -0.38100
C2227       C  0.75103449  0.41782650  0.15956448    -0.04700
C2228       C  0.73927834  0.44005964  0.14325010    -0.01900
C2229       C  0.74005966  0.44044372  0.11087111     0.03100
C2230       C  0.75243325  0.41849282  0.09419097    -0.04700
C2231       C  0.76479582  0.39665306  0.11055845    -0.01800
C2232       C  0.76399787  0.39625155  0.14287095     0.03100
C2233       C  0.72547218  0.46232548  0.15955837     0.37800
C2234       C  0.77934572  0.37481323  0.09434494     0.37800
C2235       C  0.77732758  0.37372974  0.15875511     0.36200
C2236       C  0.72743489  0.46333991  0.09494451     0.36200
N2237       N  0.78781644  0.35566932  0.17134117    -0.38600
N2238       N  0.71750473  0.48174853  0.08239557    -0.38600
N2239       N  0.79089601  0.35734750  0.08149327    -0.38100
N2240       N  0.71452771  0.48014772  0.17248171    -0.38100
O2241       O  0.75310065  0.43826277  0.95737232    -0.71200
O2242       O  0.75293560  0.44026146  0.54446353    -0.71400
O2243       O  0.79237087  0.43933507  0.00072483    -0.71300
O2244       O  0.71337485  0.43927771  0.50126226    -0.71300
O2245       O  0.71232303  0.39399375  0.00190726    -0.71200
O2246       O  0.79133218  0.39407832  0.50196672    -0.71200
O2247       O  0.75135496  0.39516719  0.54537166    -0.71200
O2248       O  0.75195771  0.39299311  0.95842175    -0.71400
V2249       V  0.75289085  0.43841136  0.00094654     1.35200
V2250       V  0.75179997  0.39494415  0.50190796     1.35200
C2251       C  0.75249400  0.41528122  0.94314075     0.78100
C2252       C  0.75221860  0.41801380  0.55988294     0.78100
C2253       C  0.80520072  0.41674201  0.50145101     0.78000
C2254       C  0.69950637  0.41661192  0.50159339     0.77900
O2255       O  0.78944927  0.39320719  0.75045555    -0.71200
O2256       O  0.71042380  0.39360102  0.75263223    -0.71400
O2257       O  0.74933612  0.39441781  0.70821030    -0.71300
O2258       O  0.75031174  0.39252492  0.79517333    -0.71300
O2259       O  0.75204800  0.43779249  0.79639363    -0.71200
O2260       O  0.75087941  0.43951297  0.70941032    -0.71200
O2261       O  0.71173515  0.43887459  0.75390103    -0.71200
O2262       O  0.79073538  0.43847533  0.75152217    -0.71400
V2263       V  0.74992060  0.39431496  0.75167265     1.35200
V2264       V  0.75126330  0.43778353  0.75285079     1.35200
C2265       C  0.80343858  0.41580470  0.75026622     0.78100
C2266       C  0.69772518  0.41629232  0.75335109     0.78100
C2267       C  0.75025086  0.41724912  0.69385279     0.78000
C2268       C  0.75140966  0.41487328  0.81053756     0.77900
O2269       O  0.91082315  0.28223315  0.95489897    -0.71200
O2270       O  0.90782578  0.28040804  0.54213856    -0.71400
O2271       O  0.90908781  0.24190488  0.99730421    -0.71300
O2272       O  0.90987305  0.32105893  0.49974274    -0.71300
O2273       O  0.86477979  0.32056381  0.99621584    -0.71200
O2274       O  0.86383673  0.24126703  0.49839216    -0.71200
O2275       O  0.86270663  0.28219671  0.54075857    -0.71200
O2276       O  0.86570305  0.27967580  0.95378877    -0.71400
V2277       V  0.90854270  0.28143853  0.99849566     1.35200
V2278       V  0.86512810  0.28093803  0.49727667     1.35200
C2279       C  0.88869588  0.28059871  0.93943684     0.78100
C2280       C  0.88472419  0.28129520  0.55625602     0.78100
C2281       C  0.88635810  0.22817582  0.49783918     0.78000
C2282       C  0.88749088  0.33423337  0.49821791     0.77900
O2283       O  0.90654921  0.28014473  0.70285201    -0.71200
O2284       O  0.90950283  0.28111940  0.78984374    -0.71400
O2285       O  0.90754102  0.24113520  0.74681886    -0.71300
O2286       O  0.90859282  0.32035954  0.74608143    -0.71300
O2287       O  0.86345139  0.31990327  0.75003961    -0.71200
O2288       O  0.86229320  0.24070330  0.74738252    -0.71200
O2289       O  0.86437252  0.27922875  0.79214930    -0.71200
O2290       O  0.86139951  0.28152591  0.70511443    -0.71400
V2291       V  0.90716797  0.28071445  0.74641041     1.35200
V2292       V  0.86374863  0.28033648  0.74861877     1.35200
C2293       C  0.88350410  0.28091880  0.68919034     0.78100
C2294       C  0.88744170  0.27995272  0.80588073     0.78100
C2295       C  0.88473831  0.22751080  0.74716404     0.78000
C2296       C  0.88620834  0.33353882  0.74828535     0.77900
O2297       O  0.71120839  0.16776332  0.50013569    -0.71200
O2298       O  0.79036619  0.16677069  0.99911999    -0.71400
O2299       O  0.75053597  0.16869106  0.95599853    -0.71300
O2300       O  0.75078678  0.16578522  0.54304396    -0.71300
O2301       O  0.74937469  0.12057467  0.54127214    -0.71200
O2302       O  0.74935315  0.12346664  0.95410653    -0.71200
O2303       O  0.78886575  0.12152341  0.49731030    -0.71200
O2304       O  0.70967532  0.12252343  0.99826167    -0.71400
V2305       V  0.75074827  0.16635819  0.49952143     1.35200
V2306       V  0.74932289  0.12289852  0.49772421     1.35200
C2307       C  0.69703565  0.14529378  0.49948504     0.78100
C2308       C  0.80301247  0.14400098  0.49836764     0.78100
C2309       C  0.74980178  0.14655310  0.94022936     0.78000
C2310       C  0.74996977  0.14274547  0.55700068     0.77900
O2311       O  0.74587183  0.12085657  0.70582896    -0.71200
O2312       O  0.74739954  0.12365628  0.79298616    -0.71400
O2313       O  0.70681728  0.12257014  0.75069334    -0.71300
O2314       O  0.78595031  0.12187052  0.74805370    -0.71300
O2315       O  0.78733723  0.16714268  0.74777332    -0.71200
O2316       O  0.70811820  0.16776594  0.74808122    -0.71200
O2317       O  0.74743446  0.16886662  0.79153401    -0.71200
O2318       O  0.74801157  0.16605799  0.70439940    -0.71400
V2319       V  0.74646123  0.12312075  0.74938759     1.35200
V2320       V  0.74770389  0.16657724  0.74797265     1.35200
C2321       C  0.74712296  0.14301364  0.69026441     0.78100
C2322       C  0.74767931  0.14672685  0.80709296     0.78100
C2323       C  0.69404670  0.14525026  0.74962034     0.78000
C2324       C  0.80003050  0.14439228  0.74754864     0.77900
O2325       O  0.58935308  0.28200363  0.54598625    -0.71200
O2326       O  0.59188377  0.27801719  0.95904136    -0.71400
O2327       O  0.59010477  0.24034581  0.50419155    -0.71300
O2328       O  0.59141014  0.31953997  0.00056563    -0.71300
O2329       O  0.63655958  0.31984738  0.50347346    -0.71200
O2330       O  0.63536321  0.24086120  0.00379466    -0.71200
O2331       O  0.63703173  0.27985910  0.95995792    -0.71200
O2332       O  0.63450594  0.28065248  0.54716363    -0.71400
V2333       V  0.59155632  0.27997909  0.50250386     1.35200
V2334       V  0.63498711  0.28032673  0.00357703     1.35200
C2335       C  0.61147498  0.28172013  0.56137138     0.78100
C2336       C  0.61482596  0.27837909  0.94460046     0.78100
C2337       C  0.61260434  0.22722495  0.50400448     0.78000
C2338       C  0.61425077  0.33306673  0.50178137     0.77900
O2339       O  0.58748702  0.28213444  0.71012736    -0.71200
O2340       O  0.59021280  0.27767359  0.79713863    -0.71400
O2341       O  0.58987245  0.31937145  0.75616669    -0.71300
O2342       O  0.58786055  0.24029429  0.75111498    -0.71300
O2343       O  0.63311079  0.24035238  0.75112916    -0.71200
O2344       O  0.63494561  0.31935649  0.75123774    -0.71200
O2345       O  0.63533685  0.27982152  0.79491858    -0.71200
O2346       O  0.63257021  0.27970769  0.70794596    -0.71400
V2347       V  0.58970492  0.27985816  0.75360869     1.35200
V2348       V  0.63311185  0.27983535  0.75141193     1.35200
C2349       C  0.60961335  0.28122075  0.69424988     0.78100
C2350       C  0.61325360  0.27833862  0.81093776     0.78100
C2351       C  0.61274226  0.33273109  0.75376401     0.78000
C2352       C  0.61021268  0.22696027  0.75054469     0.77900
O2353       O  0.92767225  0.41593384  0.52597255    -0.71200
O2354       O  0.84870452  0.41786640  0.52643033    -0.71400
O2355       O  0.88643690  0.37742084  0.52464641    -0.71300
O2356       O  0.89013066  0.45671443  0.52780766    -0.71300
O2357       O  0.88731038  0.45795690  0.97820040    -0.71200
O2358       O  0.88961617  0.37887152  0.97497973    -0.71200
O2359       O  0.84909035  0.41637959  0.97664204    -0.71200
O2360       O  0.92799801  0.42057405  0.97672716    -0.71400
V2361       V  0.88823255  0.41703767  0.52530126     1.35200
V2362       V  0.88853196  0.41842126  0.97758022     1.35200
C2363       C  0.94148843  0.41824594  0.00127317     0.78100
C2364       C  0.83553766  0.41691192  0.00153439     0.78100
C2365       C  0.88785518  0.36472354  0.49928966     0.78000
C2366       C  0.88868022  0.47083582  0.50348783     0.77900
O2367       O  0.92605159  0.41974500  0.77229752    -0.71200
O2368       O  0.84732383  0.41468068  0.77373197    -0.71400
O2369       O  0.88821974  0.37762079  0.77314691    -0.71300
O2370       O  0.88495257  0.45680403  0.77269395    -0.71300
O2371       O  0.88828820  0.45637751  0.72303586    -0.71200
O2372       O  0.88494091  0.37721761  0.72352324    -0.71200
O2373       O  0.84696429  0.41750284  0.72405197    -0.71200
O2374       O  0.92618112  0.41580408  0.72293357    -0.71400
V2375       V  0.88667770  0.41721380  0.77202432     1.35200
V2376       V  0.88658800  0.41677229  0.72428728     1.35200
C2377       C  0.93976961  0.41761131  0.74758360     0.78100
C2378       C  0.83377635  0.41584970  0.74922408     0.78100
C2379       C  0.88653880  0.36400546  0.74835875     0.78000
C2380       C  0.88641501  0.47008347  0.74773338     0.77900
O2381       O  0.92662811  0.14355877  0.97651396    -0.71200
O2382       O  0.84756033  0.14426673  0.97448766    -0.71400
O2383       O  0.88834366  0.18361282  0.97413445    -0.71300
O2384       O  0.88582341  0.10434640  0.97703980    -0.71300
O2385       O  0.88716174  0.10609400  0.52675524    -0.71200
O2386       O  0.88435138  0.18502590  0.52374221    -0.71200
O2387       O  0.84614831  0.14346317  0.52427290    -0.71200
O2388       O  0.92536921  0.14781137  0.52605472    -0.71400
V2389       V  0.88707464  0.14398736  0.97648468     1.35200
V2390       V  0.88577064  0.14556618  0.52425462     1.35200
C2391       C  0.93950283  0.14566855  0.50157949     0.78100
C2392       C  0.83345249  0.14375932  0.49905500     0.78100
C2393       C  0.88625013  0.19772069  0.99852465     0.78000
C2394       C  0.88663610  0.09176054  0.00240789     0.77900
O2395       O  0.92321302  0.14584215  0.72185750    -0.71200
O2396       O  0.84389670  0.14257440  0.72215091    -0.71400
O2397       O  0.88276634  0.18367311  0.72223089    -0.71300
O2398       O  0.88438330  0.10462452  0.72148597    -0.71300
O2399       O  0.88083178  0.10429396  0.77113745    -0.71200
O2400       O  0.88557349  0.18358594  0.77189287    -0.71200
O2401       O  0.84379214  0.14544207  0.77186569    -0.71200
O2402       O  0.92272243  0.14236219  0.77146516    -0.71400
V2403       V  0.88354365  0.14416299  0.72286447     1.35200
V2404       V  0.88324032  0.14393592  0.77065406     1.35200
C2405       C  0.93644942  0.14397681  0.74665367     0.78100
C2406       C  0.83045093  0.14411504  0.74712754     0.78100
C2407       C  0.88434909  0.19704335  0.74712565     0.78000
C2408       C  0.88256113  0.09097119  0.74614736     0.77900
O2409       O  0.57421035  0.14342870  0.52732993    -0.71200
O2410       O  0.65340241  0.14342310  0.52539976    -0.71400
O2411       O  0.61454819  0.18300251  0.52764568    -0.71300
O2412       O  0.61305209  0.10393536  0.52496092    -0.71300
O2413       O  0.61569486  0.10514094  0.97546078    -0.71200
O2414       O  0.61112087  0.18393504  0.97803822    -0.71200
O2415       O  0.65288565  0.14742369  0.97583037    -0.71200
O2416       O  0.57372719  0.14142815  0.97762464    -0.71400
V2417       V  0.61378296  0.14346310  0.52540416     1.35200
V2418       V  0.61332175  0.14448812  0.97767402     1.35200
C2419       C  0.56046581  0.14218660  0.00279130     0.78100
C2420       C  0.66656428  0.14555069  0.00027583     0.78100
C2421       C  0.61253887  0.19683706  0.50326501     0.78000
C2422       C  0.61511463  0.09095506  0.49979519     0.77900
O2423       O  0.57029973  0.14088034  0.77310847    -0.71200
O2424       O  0.64967469  0.14612764  0.77430237    -0.71400
O2425       O  0.60824422  0.18297761  0.77440753    -0.71300
O2426       O  0.61198725  0.10437406  0.77345475    -0.71300
O2427       O  0.61039667  0.10418653  0.72394650    -0.71200
O2428       O  0.61159047  0.18347593  0.72471310    -0.71200
O2429       O  0.65055164  0.14408884  0.72455476    -0.71200
O2430       O  0.57148133  0.14369816  0.72345951    -0.71400
V2431       V  0.61002291  0.14361132  0.77286288     1.35200
V2432       V  0.61097781  0.14385430  0.72509946     1.35200
C2433       C  0.55739897  0.14203610  0.74800547     0.78100
C2434       C  0.66354242  0.14530793  0.74953998     0.78100
C2435       C  0.60978662  0.19659290  0.74978881     0.78000
C2436       C  0.61167579  0.09066807  0.74872770     0.77900
O2437       O  0.57747140  0.41839204  0.97576692    -0.71200
O2438       O  0.65619353  0.41400527  0.97652466    -0.71400
O2439       O  0.61367789  0.37652415  0.97645092    -0.71300
O2440       O  0.61993540  0.45542353  0.97559168    -0.71300
O2441       O  0.61481246  0.45616984  0.52494167    -0.71200
O2442       O  0.61705794  0.37716249  0.52607751    -0.71200
O2443       O  0.65548908  0.41876621  0.52605850    -0.71200
O2444       O  0.57658765  0.41463625  0.52511847    -0.71400
V2445       V  0.61681691  0.41604311  0.97697642     1.35200
V2446       V  0.61601827  0.41666374  0.52466229     1.35200
C2447       C  0.56340291  0.41684795  0.50036717     0.78100
C2448       C  0.66919669  0.41649421  0.50139750     0.78100
C2449       C  0.61494811  0.36345625  0.00141976     0.78000
C2450       C  0.61755477  0.46938456  0.00003346     0.77900
O2451       O  0.57584055  0.41285080  0.72589121    -0.71200
O2452       O  0.65475957  0.41769864  0.72767390    -0.71400
O2453       O  0.61676933  0.37582726  0.72801991    -0.71300
O2454       O  0.61368384  0.45475401  0.72569955    -0.71300
O2455       O  0.61680631  0.45594123  0.77512159    -0.71200
O2456       O  0.61083955  0.37709344  0.77744942    -0.71200
O2457       O  0.65328750  0.41472793  0.77734648    -0.71200
O2458       O  0.57448463  0.41867909  0.77508949    -0.71400
V2459       V  0.61527007  0.41529818  0.72770388     1.35200
V2460       V  0.61389149  0.41655976  0.77536555     1.35200
C2461       C  0.56156521  0.41586022  0.75011704     0.78100
C2462       C  0.66739012  0.41633565  0.75282377     0.78100
C2463       C  0.61348125  0.36308706  0.75310196     0.78000
C2464       C  0.61516972  0.46895423  0.75012272     0.77900
C2465       C  0.61289263  0.05950457  0.74907361    -0.04700
C2466       C  0.60325547  0.04423738  0.77503487    -0.01900
C2467       C  0.60372125  0.01489477  0.77514053     0.03100
C2468       C  0.61468136  0.00012597  0.74974907    -0.04700
C2469       C  0.62511679  0.01535147  0.72419457    -0.01800
C2470       C  0.62420708  0.04474227  0.72383841     0.03100
C2471       C  0.59264212  0.05837654  0.80206393     0.37800
C2472       C  0.63774460  0.00101443  0.69841608     0.37800
C2473       C  0.63633301  0.05964506  0.69788308     0.36200
C2474       C  0.59203635  0.00008949  0.80143598     0.36200
N2475       N  0.64612706  0.07138921  0.67718166    -0.38600
N2476       N  0.58262266  0.48849406  0.82241216    -0.38600
N2477       N  0.64755972  0.48957888  0.67765755    -0.38100
N2478       N  0.58434218  0.06942016  0.82380889    -0.38100
C2479       C  0.61696727  0.05986110  0.49901154    -0.04700
C2480       C  0.62836185  0.04546683  0.52409351    -0.01900
C2481       C  0.62881427  0.01609694  0.52423306     0.03100
C2482       C  0.61778985  0.00050457  0.99939550    -0.04700
C2483       C  0.60725593  0.01486286  0.97386136    -0.01800
C2484       C  0.60746373  0.04425629  0.97335220     0.03100
C2485       C  0.64103882  0.06071911  0.54935422     0.37800
C2486       C  0.59515261  0.99957437  0.94828185     0.37800
C2487       C  0.59784698  0.05810446  0.94605554     0.36200
C2488       C  0.64152843  0.00209859  0.54979004     0.36200
N2489       N  0.59047568  0.06889444  0.92401890    -0.38600
N2490       N  0.65178168  0.49101470  0.57018344    -0.38600
N2491       N  0.58518242  0.48747140  0.92808753    -0.38100
N2492       N  0.65125490  0.07276363  0.56949131    -0.38100
C2493       C  0.96738385  0.14337874  0.74671885    -0.04700
C2494       C  0.98104563  0.12090903  0.76035532    -0.01900
C2495       C  0.51041478  0.12008424  0.76007268     0.03100
C2496       C  0.52644512  0.14220994  0.74724427    -0.04700
C2497       C  0.51277948  0.16465227  0.73353151    -0.01800
C2498       C  0.98339558  0.16516828  0.73315506     0.03100
C2499       C  0.96488512  0.09819057  0.77404485     0.37800
C2500       C  0.52896267  0.18762023  0.72039081     0.37800
C2501       C  0.96969554  0.18880729  0.71999342     0.36200
C2502       C  0.52397740  0.09555666  0.77120538     0.36200
N2503       N  0.95893489  0.20782872  0.70961983    -0.38600
N2504       N  0.53433638  0.07553990  0.77962054    -0.38600
N2505       N  0.54185454  0.20592391  0.70987897    -0.38100
N2506       N  0.95205407  0.08008539  0.78504752    -0.38100
C2507       C  0.97046339  0.14477607  0.50221041    -0.04700
C2508       C  0.98619755  0.16504963  0.51854656    -0.01900
C2509       C  0.51554430  0.16385988  0.51923470     0.03100
C2510       C  0.52949261  0.14246996  0.00343678    -0.04700
C2511       C  0.51374430  0.12195832  0.98754479    -0.01800
C2512       C  0.98443814  0.12324478  0.98665340     0.03100
C2513       C  0.97244358  0.18813036  0.53325380     0.37800
C2514       C  0.52748019  0.09858523  0.97342433     0.37800
C2515       C  0.96863325  0.10187597  0.97030133     0.36200
C2516       C  0.53144116  0.18525927  0.53543077     0.36200
N2517       N  0.95602299  0.08488592  0.95721976    -0.38600
N2518       N  0.54413129  0.20227857  0.54837770    -0.38600
N2519       N  0.53797657  0.07954148  0.96239334    -0.38100
N2520       N  0.96188114  0.20688306  0.54482809    -0.38100
C2521       C  0.97100241  0.41686360  0.74786122    -0.04700
C2522       C  0.98506002  0.40770040  0.77433512    -0.01900
C2523       C  0.51438297  0.40671240  0.77472012     0.03100
C2524       C  0.53043171  0.41611398  0.74926604    -0.04700
C2525       C  0.51650456  0.42573460  0.72301780    -0.01800
C2526       C  0.98711094  0.42517478  0.72190083     0.03100
C2527       C  0.96961899  0.39855770  0.80139045     0.37800
C2528       C  0.53224299  0.43743749  0.69736176     0.37800
C2529       C  0.97379814  0.43347238  0.69378057     0.36200
C2530       C  0.52780957  0.39510278  0.80130217     0.36200
N2531       N  0.96345012  0.43986365  0.67112403    -0.38600
N2532       N  0.53836043  0.38578364  0.82252093    -0.38600
N2533       N  0.54469121  0.44695203  0.67695997    -0.38100
N2534       N  0.95749218  0.39157421  0.82317860    -0.38100
C2535       C  0.88308216  0.06003125  0.74581979    -0.04700
C2536       C  0.90533852  0.04621426  0.73141807    -0.01900
C2537       C  0.90667110  0.01689577  0.73254031     0.03100
C2538       C  0.88543722  0.00103701  0.74740642    -0.04700
C2539       C  0.86282268  0.01483501  0.76111691    -0.01800
C2540       C  0.86161937  0.04417190  0.76023264     0.03100
C2541       C  0.92720965  0.06217074  0.71583095     0.37800
C2542       C  0.84012765  0.99885568  0.77512000     0.37800
C2543       C  0.83729896  0.05784576  0.77237429     0.36200
C2544       C  0.93064076  0.00323672  0.71955888     0.36200
N2545       N  0.81752404  0.06839396  0.78164139    -0.38600
N2546       N  0.95017866  0.49273371  0.70945917    -0.38600
N2547       N  0.82175235  0.48630685  0.78592407    -0.38100
N2548       N  0.94459475  0.07486758  0.70328256    -0.38100
C2549       C  0.97272855  0.41806320  0.50100692    -0.04700
C2550       C  0.98803062  0.42562355  0.52754292    -0.01900
C2551       C  0.51741629  0.42622103  0.52689930     0.03100
C2552       C  0.53222709  0.41767225  0.50034648    -0.04700
C2553       C  0.51697035  0.40980359  0.97392607    -0.01800
C2554       C  0.98759767  0.41030411  0.97414591     0.03100
C2555       C  0.97390161  0.43308771  0.55586558     0.37800
C2556       C  0.53118613  0.40055394  0.94631713     0.37800
C2557       C  0.97292579  0.40189081  0.94654876     0.36200
C2558       C  0.53218424  0.43683227  0.55356859     0.36200
N2559       N  0.96142222  0.39532999  0.92441848    -0.38600
N2560       N  0.54380709  0.44542994  0.57480846    -0.38600
N2561       N  0.54232939  0.39323852  0.92417453    -0.38100
N2562       N  0.96292252  0.43885356  0.57867433    -0.38100
C2563       C  0.88687765  0.06085157  0.50354633    -0.04700
C2564       C  0.90885973  0.04709025  0.51790813    -0.01900
C2565       C  0.90935385  0.01766528  0.51817016     0.03100
C2566       C  0.88780872  0.00176937  0.50419213    -0.04700
C2567       C  0.86556311  0.01561482  0.99041162    -0.01800
C2568       C  0.86511376  0.04497652  0.99009655     0.03100
C2569       C  0.93150654  0.06321027  0.53151805     0.37800
C2570       C  0.84250636  0.99968068  0.97744562     0.37800
C2571       C  0.84156704  0.05883775  0.97702987     0.36200
C2572       C  0.93271016  0.00389868  0.53169578     0.36200
N2573       N  0.82259642  0.06974678  0.96682011    -0.38600
N2574       N  0.95187022  0.49332358  0.54238858    -0.38600
N2575       N  0.82399419  0.48725314  0.96749952    -0.38100
N2576       N  0.94959263  0.07604515  0.54233939    -0.38100
C2577       C  0.61545810  0.27731767  0.91039328    -0.04700
C2578       C  0.63393050  0.29491803  0.89355664    -0.01900
C2579       C  0.63341422  0.29502386  0.86119687     0.03100
C2580       C  0.61434634  0.27757307  0.84515120    -0.04700
C2581       C  0.59631487  0.25945938  0.86199752    -0.01800
C2582       C  0.59704253  0.25916789  0.89436613     0.03100
C2583       C  0.65296862  0.31367289  0.90951692     0.37800
C2584       C  0.57749447  0.24039913  0.84609015     0.37800
C2585       C  0.57959428  0.23924444  0.91110880     0.36200
C2586       C  0.65190539  0.31398477  0.84451117     0.36200
N2587       N  0.56583026  0.22325127  0.92446873    -0.38600
N2588       N  0.66668099  0.32900353  0.83109885    -0.38600
N2589       N  0.56245019  0.22520609  0.83345432    -0.38100
N2590       N  0.66818800  0.32845766  0.92243440    -0.38100
C2591       C  0.61043586  0.28175778  0.59536738    -0.04700
C2592       C  0.62121037  0.25913536  0.61155164    -0.01900
C2593       C  0.62028043  0.25878316  0.64381132     0.03100
C2594       C  0.60890907  0.28122621  0.66027011    -0.04700
C2595       C  0.59774144  0.30375577  0.64414881    -0.01800
C2596       C  0.59847726  0.30400583  0.61174493     0.03100
C2597       C  0.63241835  0.23569924  0.59490688     0.37800
C2598       C  0.58634126  0.32707666  0.66089693     0.37800
C2599       C  0.58790386  0.32762784  0.59529079     0.36200
C2600       C  0.62996070  0.23470103  0.66010056     0.36200
N2601       N  0.57955865  0.34652252  0.58216583    -0.38600
N2602       N  0.63739791  0.21540180  0.67315705    -0.38600
N2603       N  0.57727907  0.34568812  0.67427696    -0.38100
N2604       N  0.64119614  0.21701456  0.58147008    -0.38100
C2605       C  0.74962930  0.14755387  0.90617635    -0.04700
C2606       C  0.72850664  0.16161019  0.89059130    -0.01900
C2607       C  0.72797066  0.16163907  0.85819117     0.03100
C2608       C  0.74860852  0.14769899  0.84114845    -0.04700
C2609       C  0.77026954  0.13459852  0.85678119    -0.01800
C2610       C  0.77067589  0.13436411  0.88909629     0.03100
C2611       C  0.70681330  0.17533276  0.90788581     0.37800
C2612       C  0.79313821  0.12274864  0.83967273     0.37800
C2613       C  0.79355338  0.12160073  0.90475172     0.36200
C2614       C  0.70575032  0.17540456  0.84241010     0.36200
N2615       N  0.81199731  0.11159214  0.91705576    -0.38600
N2616       N  0.68805619  0.18639594  0.82978098    -0.38600
N2617       N  0.81176558  0.11364443  0.82635256    -0.38100
N2618       N  0.68950914  0.18628623  0.92168291    -0.38100
C2619       C  0.74900903  0.14197496  0.59109175    -0.04700
C2620       C  0.76784578  0.12581891  0.60770161    -0.01900
C2621       C  0.76716779  0.12598157  0.64011687     0.03100
C2622       C  0.74751624  0.14213467  0.65615686    -0.04700
C2623       C  0.72851039  0.15796784  0.63948398    -0.01800
C2624       C  0.72923888  0.15786652  0.60717567     0.03100
C2625       C  0.78869987  0.10993761  0.59149634     0.37800
C2626       C  0.70765472  0.17383330  0.65562941     0.37800
C2627       C  0.70900708  0.17346850  0.59033484     0.36200
C2628       C  0.78760940  0.11060354  0.65695694     0.36200
N2629       N  0.69305483  0.18574142  0.57644768    -0.38600
N2630       N  0.80398786  0.09848225  0.67044107    -0.38600
N2631       N  0.69111188  0.18641867  0.66875950    -0.38100
N2632       N  0.80536586  0.09731329  0.57855811    -0.38100
C2633       C  0.88943949  0.27958407  0.90523742    -0.04700
C2634       C  0.87109321  0.26131843  0.88924368    -0.01900
C2635       C  0.87046321  0.26142826  0.85690694     0.03100
C2636       C  0.88855890  0.27941757  0.84003840    -0.04700
C2637       C  0.90771719  0.29683614  0.85598389    -0.01800
C2638       C  0.90806322  0.29703002  0.88835743     0.03100
C2639       C  0.85361531  0.24140410  0.90596641     0.37800
C2640       C  0.92659311  0.31530671  0.83914229     0.37800
C2641       C  0.92705203  0.31595224  0.90419082     0.36200
C2642       C  0.85176102  0.24220117  0.84104227     0.36200
N2643       N  0.94224534  0.33101118  0.91679250    -0.38600
N2644       N  0.83684121  0.22687201  0.82842197    -0.38600
N2645       N  0.94170652  0.32984899  0.82554959    -0.38100
N2646       N  0.83980568  0.22540314  0.91925658    -0.38100
C2647       C  0.88345651  0.28099614  0.59025702    -0.04700
C2648       C  0.87267454  0.30379789  0.60670061    -0.01900
C2649       C  0.87210624  0.30360340  0.63909295     0.03100
C2650       C  0.88257395  0.28072241  0.65520863    -0.04700
C2651       C  0.89259995  0.25764852  0.63872475    -0.01800
C2652       C  0.89285832  0.25771222  0.60642227     0.03100
C2653       C  0.86294089  0.32782405  0.59030971     0.37800
C2654       C  0.90170288  0.23328318  0.65497223     0.37800
C2655       C  0.90156173  0.23315368  0.58990291     0.36200
C2656       C  0.86150975  0.32730218  0.65582831     0.36200
N2657       N  0.90820129  0.21319667  0.57717870    -0.38600
N2658       N  0.85305951  0.34623147  0.66915266    -0.38600
N2659       N  0.90883222  0.21363633  0.66763655    -0.38100
N2660       N  0.85524928  0.34703420  0.57724521    -0.38100
C2661       C  0.75188647  0.41427053  0.84443293    -0.04700
C2662       C  0.72802804  0.40542030  0.86115477    -0.01900
C2663       C  0.72835306  0.40534572  0.89347456     0.03100
C2664       C  0.75239634  0.41450991  0.90924024    -0.04700
C2665       C  0.77629705  0.42315909  0.89250888    -0.01800
C2666       C  0.77610421  0.42286502  0.86020877     0.03100
C2667       C  0.70279010  0.39739935  0.84513280     0.37800
C2668       C  0.80138014  0.43174095  0.90848608     0.37800
C2669       C  0.80115661  0.43067425  0.84328338     0.36200
C2670       C  0.70363682  0.39662280  0.91047467     0.36200
N2671       N  0.82141551  0.43677578  0.83018969    -0.38600
N2672       N  0.68379118  0.38967350  0.92384195    -0.38600
N2673       N  0.82156374  0.43855400  0.92092914    -0.38100
N2674       N  0.68254201  0.39121069  0.83245129    -0.38100
C2675       C  0.75102896  0.41782563  0.65956455    -0.04700
C2676       C  0.73927022  0.44005762  0.64325070    -0.01900
C2677       C  0.74005030  0.44044154  0.61087174     0.03100
C2678       C  0.75242658  0.41849238  0.59419138    -0.04700
C2679       C  0.76479127  0.39665362  0.61055836    -0.01800
C2680       C  0.76399341  0.39625156  0.64287076     0.03100
C2681       C  0.72546258  0.46232220  0.65955961     0.37800
C2682       C  0.77934307  0.37481533  0.59434438     0.37800
C2683       C  0.77732397  0.37373009  0.65875455     0.36200
C2684       C  0.72742090  0.46333514  0.59494531     0.36200
N2685       N  0.78781331  0.35566979  0.67134035    -0.38600
N2686       N  0.71748666  0.48174155  0.58239645    -0.38600
N2687       N  0.79089478  0.35735089  0.58149222    -0.38100
N2688       N  0.71451699  0.48014337  0.67248353    -0.38100
O2689       O  0.75300856  0.93806932  0.45727957    -0.71200
O2690       O  0.75291493  0.94024966  0.04437125    -0.71400
O2691       O  0.79230747  0.93921853  0.50060250    -0.71300
O2692       O  0.71332811  0.93921055  0.00119165    -0.71300
O2693       O  0.71223774  0.89392996  0.50191803    -0.71200
O2694       O  0.79125251  0.89396150  0.00198667    -0.71200
O2695       O  0.75127606  0.89515822  0.04537826    -0.71200
O2696       O  0.75186718  0.89280224  0.45843941    -0.71400
V2697       V  0.75283248  0.93831509  0.50085452     1.35200
V2698       V  0.75171677  0.89484666  0.00192003     1.35200
C2699       C  0.75239166  0.91505821  0.44310370     0.78100
C2700       C  0.75218962  0.91802883  0.05983956     0.78100
C2701       C  0.80513000  0.91662055  0.00140290     0.78000
C2702       C  0.69944423  0.91655742  0.00155935     0.77900
O2703       O  0.78944920  0.89316546  0.25036772    -0.71200
O2704       O  0.71042303  0.89355221  0.25254597    -0.71400
O2705       O  0.74933394  0.89444537  0.20813124    -0.71300
O2706       O  0.75030418  0.89239863  0.29508556    -0.71300
O2707       O  0.75192620  0.93766586  0.29640478    -0.71200
O2708       O  0.75098787  0.93953644  0.20941125    -0.71200
O2709       O  0.71173512  0.93882691  0.25378264    -0.71200
O2710       O  0.79073296  0.93843006  0.25165679    -0.71400
V2711       V  0.74991872  0.89426793  0.25158915     1.35200
V2712       V  0.75125970  0.93773478  0.25285596     1.35200
C2713       C  0.80343795  0.91576421  0.25030652     0.78100
C2714       C  0.69772688  0.91624523  0.25322986     0.78100
C2715       C  0.75031933  0.91729563  0.19381288     0.78000
C2716       C  0.75132336  0.91472033  0.31049965     0.77900
O2717       O  0.91078622  0.78228633  0.45494793    -0.71200
O2718       O  0.90798041  0.78039156  0.04218674    -0.71400
O2719       O  0.90916805  0.74191764  0.49731320    -0.71300
O2720       O  0.90991089  0.82106515  0.99981959    -0.71300
O2721       O  0.86480759  0.82053617  0.49631037    -0.71200
O2722       O  0.86392533  0.74125410  0.99862007    -0.71200
O2723       O  0.86286110  0.78223762  0.04091675    -0.71200
O2724       O  0.86566589  0.77960699  0.45394597    -0.71400
V2725       V  0.90859977  0.78144903  0.49854428     1.35200
V2726       V  0.86518927  0.78091965  0.99743333     1.35200
C2727       C  0.88862957  0.78061443  0.43954025     0.78100
C2728       C  0.88490902  0.78131970  0.05635998     0.78100
C2729       C  0.88645310  0.72817698  0.99796764     0.78000
C2730       C  0.88751823  0.83421970  0.99828799     0.77900
O2731       O  0.90675171  0.78017009  0.20300928    -0.71200
O2732       O  0.90951764  0.78116984  0.29001208    -0.71400
O2733       O  0.90765958  0.74115686  0.24699372    -0.71300
O2734       O  0.90868789  0.82039193  0.24623161    -0.71300
O2735       O  0.86353726  0.81991725  0.25004667    -0.71200
O2736       O  0.86241243  0.74071597  0.24745976    -0.71200
O2737       O  0.86438163  0.77927911  0.29220073    -0.71200
O2738       O  0.86159637  0.78151627  0.20516138    -0.71400
V2739       V  0.90727677  0.78074414  0.24657181     1.35200
V2740       V  0.86385316  0.78035168  0.24866791     1.35200
C2741       C  0.88373319  0.78093690  0.18929255     0.78100
C2742       C  0.88742082  0.78002365  0.30598998     0.78100
C2743       C  0.88485841  0.72752463  0.24728780     0.78000
C2744       C  0.88629137  0.83356206  0.24835075     0.77900
O2745       O  0.71132914  0.66773811  0.00002750    -0.71200
O2746       O  0.79048115  0.66674838  0.49900439    -0.71400
O2747       O  0.75063825  0.66856897  0.45588882    -0.71300
O2748       O  0.75092060  0.66585384  0.04292640    -0.71300
O2749       O  0.74940862  0.62064345  0.04127060    -0.71200
O2750       O  0.74953461  0.62334126  0.45410574    -0.71200
O2751       O  0.78898508  0.62150108  0.99740720    -0.71200
O2752       O  0.70979602  0.62249022  0.49817340    -0.71400
V2753       V  0.75086568  0.66633534  0.99940800     1.35200
V2754       V  0.74944010  0.62287270  0.99772134     1.35200
C2755       C  0.69715857  0.64526847  0.99937047     0.78100
C2756       C  0.80312997  0.64398403  0.99838274     0.78100
C2757       C  0.74993242  0.64639952  0.44017469     0.78000
C2758       C  0.75004219  0.64284578  0.05694397     0.77900
O2759       O  0.74591450  0.62098766  0.20572698    -0.71200
O2760       O  0.74745846  0.62357551  0.29287720    -0.71400
O2761       O  0.70687356  0.62258607  0.25059030    -0.71300
O2762       O  0.78600520  0.62190704  0.24793906    -0.71300
O2763       O  0.78738667  0.66718025  0.24783307    -0.71200
O2764       O  0.70816677  0.66778636  0.24806573    -0.71200
O2765       O  0.74745366  0.66878839  0.29155346    -0.71200
O2766       O  0.74810138  0.66618878  0.20441919    -0.71400
V2767       V  0.74651556  0.62314642  0.24928277     1.35200
V2768       V  0.74775398  0.66660571  0.24799112     1.35200
C2769       C  0.74719274  0.64317704  0.19022037     0.78100
C2770       C  0.74771888  0.64661240  0.30704816     0.78100
C2771       C  0.69409911  0.64526497  0.24955170     0.78000
C2772       C  0.80008289  0.64443209  0.24753108     0.77900
O2773       O  0.58953036  0.78197748  0.04587810    -0.71200
O2774       O  0.59195524  0.77801327  0.45893360    -0.71400
O2775       O  0.59026070  0.74033042  0.00408539    -0.71300
O2776       O  0.59147787  0.81951227  0.50047388    -0.71300
O2777       O  0.63663338  0.81987576  0.00327378    -0.71200
O2778       O  0.63552380  0.74088043  0.50364493    -0.71200
O2779       O  0.63710161  0.77986178  0.45978284    -0.71200
O2780       O  0.63469010  0.78069793  0.04698624    -0.71400
V2781       V  0.59167513  0.77996027  0.00239709     1.35200
V2782       V  0.63511173  0.78035002  0.50340175     1.35200
C2783       C  0.61167451  0.78173409  0.06122612     0.78100
C2784       C  0.61487929  0.77838380  0.44445517     0.78100
C2785       C  0.61276879  0.72722671  0.00389164     0.78000
C2786       C  0.61430069  0.83306694  0.00164213     0.77900
O2787       O  0.58755308  0.78206043  0.20992484    -0.71200
O2788       O  0.59018592  0.77771726  0.29695226    -0.71400
O2789       O  0.58986342  0.81935891  0.25591206    -0.71300
O2790       O  0.58788488  0.74027099  0.25098041    -0.71300
O2791       O  0.63313449  0.74033945  0.25099009    -0.71200
O2792       O  0.63494613  0.81935994  0.25111183    -0.71200
O2793       O  0.63530974  0.77980826  0.29477465    -0.71200
O2794       O  0.63264440  0.77970342  0.20781385    -0.71400
V2795       V  0.58971888  0.77984073  0.25341418     1.35200
V2796       V  0.63312810  0.77982892  0.25127456     1.35200
C2797       C  0.60970369  0.78117590  0.19408424     0.78100
C2798       C  0.61321633  0.77836538  0.31077545     0.78100
C2799       C  0.61273164  0.83273017  0.25357609     0.78000
C2800       C  0.61023844  0.72693904  0.25041979     0.77900
O2801       O  0.92761459  0.91600187  0.02590187    -0.71200
O2802       O  0.84863630  0.91779703  0.02638284    -0.71400
O2803       O  0.88643995  0.87742613  0.02465360    -0.71300
O2804       O  0.89000024  0.95671826  0.02769086    -0.71300
O2805       O  0.88718562  0.95789817  0.47809452    -0.71200
O2806       O  0.88957986  0.87881949  0.47498640    -0.71200
O2807       O  0.84901444  0.91627304  0.47660453    -0.71200
O2808       O  0.92791516  0.92056051  0.47665937    -0.71400
V2809       V  0.88816894  0.91703942  0.02524468     1.35200
V2810       V  0.88845183  0.91836520  0.47753010     1.35200
C2811       C  0.94141957  0.91828287  0.50120217     0.78100
C2812       C  0.83546407  0.91680115  0.50149685     0.78100
C2813       C  0.88785874  0.86470241  0.99931507     0.78000
C2814       C  0.88853803  0.97080738  0.00334977     0.77900
O2815       O  0.92604727  0.91981230  0.27234449    -0.71200
O2816       O  0.84732376  0.91466068  0.27378415    -0.71400
O2817       O  0.88826702  0.87764602  0.27319916    -0.71300
O2818       O  0.88491494  0.95681512  0.27275699    -0.71300
O2819       O  0.88824850  0.95640089  0.22309867    -0.71200
O2820       O  0.88498506  0.87723734  0.22357605    -0.71200
O2821       O  0.84696489  0.91748123  0.22410418    -0.71200
O2822       O  0.92618306  0.91587281  0.22298211    -0.71400
V2823       V  0.88667787  0.91723326  0.27207741     1.35200
V2824       V  0.88658861  0.91679451  0.22434061     1.35200
C2825       C  0.93976973  0.91770059  0.24763105     0.78100
C2826       C  0.83377640  0.91581848  0.24927458     0.78100
C2827       C  0.88660126  0.86402836  0.24841274     0.78000
C2828       C  0.88637424  0.97009968  0.24780170     0.77900
O2829       O  0.92677239  0.64353798  0.47679420    -0.71200
O2830       O  0.84771871  0.64428464  0.47460379    -0.71400
O2831       O  0.88852605  0.68360608  0.47430720    -0.71300
O2832       O  0.88595251  0.60434752  0.47727131    -0.71300
O2833       O  0.88727212  0.60612165  0.02697527    -0.71200
O2834       O  0.88438989  0.68504317  0.02389609    -0.71200
O2835       O  0.84622472  0.64344293  0.02437990    -0.71200
O2836       O  0.92545096  0.64786047  0.02631306    -0.71400
V2837       V  0.88722677  0.64398539  0.47668483     1.35200
V2838       V  0.88584884  0.64558717  0.02444191     1.35200
C2839       C  0.93961923  0.64567020  0.00186479     0.78100
C2840       C  0.83356955  0.64375270  0.99913542     0.78100
C2841       C  0.88635593  0.69772520  0.49867964     0.78000
C2842       C  0.88675780  0.59177843  0.50264979     0.77900
O2843       O  0.92326527  0.64582186  0.22186446    -0.71200
O2844       O  0.84395245  0.64264725  0.22214449    -0.71400
O2845       O  0.88287085  0.68370736  0.22229677    -0.71300
O2846       O  0.88438960  0.60464681  0.22142368    -0.71300
O2847       O  0.88083882  0.60425459  0.27107438    -0.71200
O2848       O  0.88566251  0.68355525  0.27195831    -0.71200
O2849       O  0.84384024  0.64544098  0.27186459    -0.71200
O2850       O  0.92277111  0.64228823  0.27146691    -0.71400
V2851       V  0.88359803  0.64418993  0.22286668     1.35200
V2852       V  0.88328873  0.64390104  0.27065539     1.35200
C2853       C  0.93649984  0.64391860  0.24665672     0.78100
C2854       C  0.83050321  0.64415694  0.24712076     0.78100
C2855       C  0.88446234  0.69704871  0.24721097     0.78000
C2856       C  0.88255351  0.59096087  0.24606302     0.77900
O2857       O  0.57438521  0.64342184  0.02736151    -0.71200
O2858       O  0.65355852  0.64344779  0.02531640    -0.71400
O2859       O  0.61470732  0.68301846  0.02757686    -0.71300
O2860       O  0.61322520  0.60394717  0.02495271    -0.71300
O2861       O  0.61574806  0.60511845  0.47544911    -0.71200
O2862       O  0.61127676  0.68391702  0.47796996    -0.71200
O2863       O  0.65299249  0.64735470  0.47573883    -0.71200
O2864       O  0.57382497  0.64145224  0.47766144    -0.71400
V2865       V  0.61394751  0.64347492  0.02536978     1.35200
V2866       V  0.61342612  0.64446803  0.47764047     1.35200
C2867       C  0.56060217  0.64219367  0.50285535     0.78100
C2868       C  0.66669302  0.64552079  0.50017479     0.78100
C2869       C  0.61270898  0.69683748  0.00318285     0.78000
C2870       C  0.61522058  0.59094947  0.99979037     0.77900
O2871       O  0.57035212  0.64082796  0.27302525    -0.71200
O2872       O  0.64972406  0.64611426  0.27422104    -0.71400
O2873       O  0.60828707  0.68295465  0.27430613    -0.71300
O2874       O  0.61204884  0.60434613  0.27338125    -0.71300
O2875       O  0.61049249  0.60414717  0.22386962    -0.71200
O2876       O  0.61160229  0.68343685  0.22460989    -0.71200
O2877       O  0.65060812  0.64409334  0.22447255    -0.71200
O2878       O  0.57153325  0.64359998  0.22337300    -0.71400
V2879       V  0.61007483  0.64358302  0.27277730     1.35200
V2880       V  0.61103209  0.64381277  0.22501294     1.35200
C2881       C  0.55745081  0.64193675  0.24791989     0.78100
C2882       C  0.66359510  0.64531267  0.24946090     0.78100
C2883       C  0.60981406  0.69656455  0.24968087     0.78000
C2884       C  0.61174736  0.59063580  0.24865653     0.77900
O2885       O  0.57742363  0.91838840  0.47567722    -0.71200
O2886       O  0.65614853  0.91402122  0.47645986    -0.71400
O2887       O  0.61366176  0.87653308  0.47634433    -0.71300
O2888       O  0.61988298  0.95543136  0.47553624    -0.71300
O2889       O  0.61476164  0.95616059  0.02488232    -0.71200
O2890       O  0.61700774  0.87714897  0.02597346    -0.71200
O2891       O  0.65542698  0.91873948  0.02599958    -0.71200
O2892       O  0.57653136  0.91462668  0.02502387    -0.71400
V2893       V  0.61677356  0.91605105  0.47689766     1.35200
V2894       V  0.61596145  0.91665018  0.02458264     1.35200
C2895       C  0.56335107  0.91684760  0.00027091     0.78100
C2896       C  0.66914161  0.91647232  0.00134429     0.78100
C2897       C  0.61494400  0.86345420  0.50130417     0.78000
C2898       C  0.61750460  0.96938545  0.49998239     0.77900
O2899       O  0.57582278  0.91295757  0.22586498    -0.71200
O2900       O  0.65475288  0.91770237  0.22756911    -0.71400
O2901       O  0.61671738  0.87586840  0.22788281    -0.71300
O2902       O  0.61371825  0.95481098  0.22569122    -0.71300
O2903       O  0.61688136  0.95593654  0.27511145    -0.71200
O2904       O  0.61083861  0.87707864  0.27731948    -0.71200
O2905       O  0.65331138  0.91467089  0.27723844    -0.71200
O2906       O  0.57452781  0.91872844  0.27506935    -0.71400
V2907       V  0.61525988  0.91534811  0.22763361     1.35200
V2908       V  0.61392469  0.91655204  0.27529719     1.35200
C2909       C  0.56157638  0.91597088  0.25011255     0.78100
C2910       C  0.66739674  0.91629591  0.25270800     0.78100
C2911       C  0.61345716  0.86309600  0.25294969     0.78000
C2912       C  0.61523417  0.96898202  0.25013315     0.77900
C2913       C  0.61292502  0.55947363  0.24901051    -0.04700
C2914       C  0.60319810  0.54422328  0.27494328    -0.01900
C2915       C  0.60364013  0.51488145  0.27506439     0.03100
C2916       C  0.61461207  0.50009422  0.24969210    -0.04700
C2917       C  0.62507970  0.51529989  0.22413787    -0.01800
C2918       C  0.62425975  0.54469489  0.22380018     0.03100
C2919       C  0.59250499  0.55838068  0.30192181     0.37800
C2920       C  0.63762370  0.50093659  0.19832742     0.37800
C2921       C  0.63651089  0.55958304  0.19790277     0.36200
C2922       C  0.59191878  0.50009665  0.30135544     0.36200
N2923       N  0.64641509  0.57131398  0.17725310    -0.38600
N2924       N  0.58274512  0.98846724  0.32247582    -0.38600
N2925       N  0.64777595  0.98967951  0.17777969    -0.38100
N2926       N  0.58412764  0.56943810  0.32362156    -0.38100
C2927       C  0.61705153  0.55985367  0.99902072    -0.04700
C2928       C  0.62846043  0.54546402  0.02409810    -0.01900
C2929       C  0.62891182  0.51609552  0.02424291     0.03100
C2930       C  0.61782963  0.50049861  0.49944116    -0.04700
C2931       C  0.60724150  0.51484652  0.47393203    -0.01800
C2932       C  0.60750085  0.54423940  0.47338688     0.03100
C2933       C  0.64114878  0.56071701  0.04935137     0.37800
C2934       C  0.59500615  0.49954671  0.44843540     0.37800
C2935       C  0.59791654  0.55807347  0.44606747     0.36200
C2936       C  0.64166704  0.50210017  0.04977528     0.36200
N2937       N  0.59058373  0.56884796  0.42400494    -0.38600
N2938       N  0.65163166  0.99101324  0.07020578    -0.38600
N2939       N  0.58545125  0.98750993  0.42785577    -0.38100
N2940       N  0.65136858  0.57276171  0.06948584    -0.38100
C2941       C  0.96743428  0.64330444  0.24671005    -0.04700
C2942       C  0.98109395  0.62082611  0.26033086    -0.01900
C2943       C  0.51046252  0.61997087  0.25998874     0.03100
C2944       C  0.52649610  0.64209561  0.24715946    -0.04700
C2945       C  0.51283144  0.66454049  0.23345583    -0.01800
C2946       C  0.98344909  0.66507319  0.23310986     0.03100
C2947       C  0.96493126  0.59812835  0.27406054     0.37800
C2948       C  0.52901722  0.68748542  0.22027024     0.37800
C2949       C  0.96975824  0.68871210  0.21994023     0.36200
C2950       C  0.52400758  0.59539501  0.27101381     0.36200
N2951       N  0.95901335  0.70773787  0.20955742    -0.38600
N2952       N  0.53432526  0.57532027  0.27932450    -0.38600
N2953       N  0.54191586  0.70576515  0.20971849    -0.38100
N2954       N  0.95209819  0.58004152  0.28509705    -0.38100
C2955       C  0.97058523  0.64473653  0.00252101    -0.04700
C2956       C  0.98634173  0.66484692  0.01907483    -0.01900
C2957       C  0.51569369  0.66368677  0.01964293     0.03100
C2958       C  0.52962765  0.64245608  0.50358003    -0.04700
C2959       C  0.51385897  0.62204995  0.48755582    -0.01800
C2960       C  0.98455141  0.62333957  0.48673007     0.03100
C2961       C  0.97261752  0.68773969  0.03416874     0.37800
C2962       C  0.52757573  0.59876406  0.47323339     0.37800
C2963       C  0.96874121  0.60209564  0.47019129     0.36200
C2964       C  0.53160932  0.68497752  0.03598973     0.36200
N2965       N  0.95612861  0.58520949  0.45695454    -0.38600
N2966       N  0.54431721  0.70191238  0.04904665    -0.38600
N2967       N  0.53805402  0.57978391  0.46204559    -0.38100
N2968       N  0.96211756  0.70635140  0.04608990    -0.38100
C2969       C  0.97100553  0.91700178  0.24791154    -0.04700
C2970       C  0.98507528  0.90794265  0.27442208    -0.01900
C2971       C  0.51439994  0.90700411  0.27482296     0.03100
C2972       C  0.53044026  0.91628995  0.24930853    -0.04700
C2973       C  0.51649983  0.92585293  0.22304134    -0.01800
C2974       C  0.98710560  0.92527168  0.22192847     0.03100
C2975       C  0.96964632  0.89884500  0.30150448     0.37800
C2976       C  0.53222378  0.93754444  0.19736806     0.37800
C2977       C  0.97378504  0.93349716  0.19378551     0.36200
C2978       C  0.52783250  0.89560786  0.30151654     0.36200
N2979       N  0.96343388  0.93983195  0.17111057    -0.38600
N2980       N  0.53838262  0.88647922  0.32283855    -0.38600
N2981       N  0.54465894  0.94705958  0.17695706    -0.38100
N2982       N  0.95753114  0.89189152  0.32331149    -0.38100
C2983       C  0.88306512  0.56001693  0.24569060    -0.04700
C2984       C  0.90537520  0.54621254  0.23137787    -0.01900
C2985       C  0.90672629  0.51689383  0.23251401     0.03100
C2986       C  0.88546658  0.50102189  0.24731970    -0.04700
C2987       C  0.86278753  0.51480542  0.26091520    -0.01800
C2988       C  0.86155191  0.54414068  0.25999017     0.03100
C2989       C  0.92727138  0.56218335  0.21585208     0.37800
C2990       C  0.84006710  0.49881040  0.27484706     0.37800
C2991       C  0.83714149  0.55778991  0.27193535     0.36200
C2992       C  0.93073495  0.50324821  0.21960595     0.36200
N2993       N  0.81728508  0.56830893  0.28102387    -0.38600
N2994       N  0.95005846  0.99271560  0.20934952    -0.38600
N2995       N  0.82184347  0.98636186  0.28626316    -0.38100
N2996       N  0.94467332  0.57489411  0.20334860    -0.38100
C2997       C  0.97266740  0.91812227  0.00090990    -0.04700
C2998       C  0.98797564  0.92562030  0.02746330    -0.01900
C2999       C  0.51736221  0.92619641  0.02682267     0.03100
C3000       C  0.53217212  0.91769310  0.00024980    -0.04700
C3001       C  0.51690701  0.90989231  0.47381295    -0.01800
C3002       C  0.98753391  0.91041734  0.47403254     0.03100
C3003       C  0.97385384  0.93304781  0.05580196     0.37800
C3004       C  0.53111633  0.90069855  0.44617753     0.37800
C3005       C  0.97286499  0.90210656  0.44639710     0.36200
C3006       C  0.53213200  0.93673889  0.05352325     0.36200
N3007       N  0.96136783  0.89563290  0.42423443    -0.38600
N3008       N  0.54375435  0.94528148  0.07478811    -0.38600
N3009       N  0.54225289  0.89342755  0.42401144    -0.38100
N3010       N  0.96288089  0.93878608  0.07862393    -0.38100
C3011       C  0.88699398  0.56087489  0.00378951    -0.04700
C3012       C  0.90902092  0.54711225  0.01806284    -0.01900
C3013       C  0.90952850  0.51768691  0.01828587     0.03100
C3014       C  0.88795018  0.50179678  0.00435902    -0.04700
C3015       C  0.86565918  0.51564845  0.49069223    -0.01800
C3016       C  0.86519143  0.54500796  0.49042800     0.03100
C3017       C  0.93168718  0.56323425  0.03163249     0.37800
C3018       C  0.84258069  0.49972472  0.47776190     0.37800
C3019       C  0.84158391  0.55887725  0.47750289     0.36200
C3020       C  0.93293253  0.50391915  0.03170756     0.36200
N3021       N  0.82256440  0.56979699  0.46741760    -0.38600
N3022       N  0.95161486  0.99329301  0.04241957    -0.38600
N3023       N  0.82394722  0.98719118  0.46716648    -0.38100
N3024       N  0.94978264  0.57607500  0.04242762    -0.38100
C3025       C  0.61547130  0.77733283  0.41024115    -0.04700
C3026       C  0.63408737  0.79477014  0.39338242    -0.01900
C3027       C  0.63353795  0.79489158  0.36102386     0.03100
C3028       C  0.61429889  0.77761609  0.34499350    -0.04700
C3029       C  0.59612628  0.75965689  0.36185929    -0.01800
C3030       C  0.59688591  0.75934652  0.39422607     0.03100
C3031       C  0.65334296  0.81332640  0.40930832     0.37800
C3032       C  0.57712921  0.74075645  0.34597672     0.37800
C3033       C  0.57929944  0.73954563  0.41097342     0.36200
C3034       C  0.65220295  0.81367963  0.34432836     0.36200
N3035       N  0.56542600  0.72364682  0.42433492    -0.38600
N3036       N  0.66712364  0.82855556  0.33091475    -0.38600
N3037       N  0.56194342  0.72569037  0.33336328    -0.38100
N3038       N  0.66874883  0.82794994  0.42217951    -0.38100
C3039       C  0.61067001  0.78177964  0.09521667    -0.04700
C3040       C  0.62139246  0.75912739  0.11139381    -0.01900
C3041       C  0.62042782  0.75875507  0.14365232     0.03100
C3042       C  0.60905245  0.78119844  0.16010868    -0.04700
C3043       C  0.59795367  0.80376441  0.14399200    -0.01800
C3044       C  0.59874963  0.80404720  0.11159320     0.03100
C3045       C  0.63256744  0.73567810  0.09474251     0.37800
C3046       C  0.58654476  0.82707927  0.16074338     0.37800
C3047       C  0.58827501  0.82771946  0.09514559     0.36200
C3048       C  0.63006725  0.73465073  0.15993683     0.36200
N3049       N  0.58001321  0.84665901  0.08203169    -0.38600
N3050       N  0.63747249  0.71532879  0.17297815    -0.38600
N3051       N  0.57746888  0.84568172  0.17412689    -0.38100
N3052       N  0.64131251  0.71697804  0.08130443    -0.38100
C3053       C  0.74970864  0.64734095  0.40612435    -0.04700
C3054       C  0.72864278  0.66150151  0.39056108    -0.01900
C3055       C  0.72809242  0.66155250  0.35816530     0.03100
C3056       C  0.74864476  0.64750957  0.34110271    -0.04700
C3057       C  0.77022576  0.63425650  0.35671358    -0.01800
C3058       C  0.77065451  0.63401457  0.38902665     0.03100
C3059       C  0.70701158  0.67530487  0.40787236     0.37800
C3060       C  0.79300851  0.62226628  0.33958882     0.37800
C3061       C  0.79346225  0.62110601  0.40465984     0.36200
C3062       C  0.70594622  0.67545954  0.34240940     0.36200
N3063       N  0.81184722  0.61097786  0.41694959    -0.38600
N3064       N  0.68831484  0.68656715  0.32979959    -0.38600
N3065       N  0.81157210  0.61304607  0.32626117    -0.38100
N3066       N  0.68975299  0.68631743  0.42168059    -0.38100
C3067       C  0.74909084  0.64214505  0.09103953    -0.04700
C3068       C  0.76766179  0.62569106  0.10765915    -0.01900
C3069       C  0.76699477  0.62588160  0.14007052     0.03100
C3070       C  0.74761285  0.64235805  0.15610879    -0.04700
C3071       C  0.72889296  0.65852728  0.13942824    -0.01800
C3072       C  0.72960876  0.65839248  0.10711963     0.03100
C3073       C  0.78824928  0.60945542  0.09147026     0.37800
C3074       C  0.70834294  0.67479904  0.15555594     0.37800
C3075       C  0.70964599  0.67434013  0.09028196     0.36200
C3076       C  0.78720110  0.61019018  0.15690432     0.36200
N3077       N  0.69391254  0.68689648  0.07640080    -0.38600
N3078       N  0.80339564  0.59782025  0.17038157    -0.38600
N3079       N  0.69205299  0.68772825  0.16865943    -0.38100
N3080       N  0.80470096  0.59654521  0.07854698    -0.38100
C3081       C  0.88931887  0.77967492  0.40534135    -0.04700
C3082       C  0.87104912  0.76134614  0.38933037    -0.01900
C3083       C  0.87042939  0.76147190  0.35699324     0.03100
C3084       C  0.88846646  0.77953449  0.34014704    -0.04700
C3085       C  0.90750433  0.79706903  0.35611021    -0.01800
C3086       C  0.90782865  0.79725739  0.38848232     0.03100
C3087       C  0.85364512  0.74135634  0.40603369     0.37800
C3088       C  0.92627060  0.81566103  0.33928369     0.37800
C3089       C  0.92666229  0.81631929  0.40434010     0.36200
C3090       C  0.85180350  0.74218981  0.34110183     0.36200
N3091       N  0.94172247  0.83149425  0.41696790    -0.38600
N3092       N  0.83694375  0.72682108  0.32845438    -0.38600
N3093       N  0.94129416  0.83030245  0.32570060    -0.38100
N3094       N  0.83989303  0.72529581  0.41930781    -0.38100
C3095       C  0.88370617  0.78104508  0.09036230    -0.04700
C3096       C  0.87293863  0.80384992  0.10681170    -0.01900
C3097       C  0.87238617  0.80365477  0.13920318     0.03100
C3098       C  0.88285992  0.78077181  0.15531151    -0.04700
C3099       C  0.89287509  0.75769785  0.13882330    -0.01800
C3100       C  0.89310808  0.75775924  0.10652210     0.03100
C3101       C  0.86315585  0.82785904  0.09042750     0.37800
C3102       C  0.90194209  0.73331456  0.15506306     0.37800
C3103       C  0.90171468  0.73316962  0.09000081     0.36200
C3104       C  0.86175220  0.82733440  0.15594324     0.36200
N3105       N  0.90824963  0.71317778  0.07727671    -0.38600
N3106       N  0.85325699  0.84624483  0.16926477    -0.38600
N3107       N  0.90903089  0.71364665  0.16771660    -0.38100
N3108       N  0.85541238  0.84705236  0.07737229    -0.38100
C3109       C  0.75179085  0.91405672  0.34439497    -0.04700
C3110       C  0.72793313  0.90518059  0.36110617    -0.01900
C3111       C  0.72825420  0.90508412  0.39342981     0.03100
C3112       C  0.75230320  0.91422605  0.40920361    -0.04700
C3113       C  0.77621747  0.92284294  0.39247954    -0.01800
C3114       C  0.77601444  0.92261093  0.36018173     0.03100
C3115       C  0.70270236  0.89715743  0.34507093     0.37800
C3116       C  0.80132833  0.93132443  0.40846319     0.37800
C3117       C  0.80105627  0.93047436  0.34326728     0.36200
C3118       C  0.70353289  0.89636040  0.41042370     0.36200
N3119       N  0.82130493  0.93663110  0.33018475    -0.38600
N3120       N  0.68368374  0.88940883  0.42378527    -0.38600
N3121       N  0.82153687  0.93804884  0.42091028    -0.38100
N3122       N  0.68246145  0.89096203  0.33237834    -0.38100
C3123       C  0.75112271  0.91790596  0.15952337    -0.04700
C3124       C  0.73944975  0.94019144  0.14321524    -0.01900
C3125       C  0.74016993  0.94054618  0.11083196     0.03100
C3126       C  0.75246085  0.91855163  0.09414690    -0.04700
C3127       C  0.76480149  0.89669552  0.11050890    -0.01800
C3128       C  0.76400262  0.89628532  0.14281940     0.03100
C3129       C  0.72579624  0.96254707  0.15953284     0.37800
C3130       C  0.77933857  0.87484796  0.09429099     0.37800
C3131       C  0.77723903  0.87369490  0.15868660     0.36200
C3132       C  0.72755360  0.96344837  0.09490677     0.36200
N3133       N  0.78765088  0.85557477  0.17124954    -0.38600
N3134       N  0.71761956  0.98185577  0.08235921    -0.38600
N3135       N  0.79088805  0.85738207  0.08143790    -0.38100
N3136       N  0.71497971  0.98044676  0.17246010    -0.38100
O3137       O  0.75300920  0.93806791  0.95727916    -0.71200
O3138       O  0.75291637  0.94025235  0.54437173    -0.71400
O3139       O  0.79230698  0.93921635  0.00060288    -0.71300
O3140       O  0.71332840  0.93921218  0.50119332    -0.71300
O3141       O  0.71223697  0.89392836  0.00191821    -0.71200
O3142       O  0.79125302  0.89396377  0.50198984    -0.71200
O3143       O  0.75127536  0.89516100  0.54537938    -0.71200
O3144       O  0.75186520  0.89280080  0.95843833    -0.71400
V3145       V  0.75283210  0.93831307  0.00085402     1.35200
V3146       V  0.75171741  0.89484870  0.50192125     1.35200
C3147       C  0.75239104  0.91505697  0.94310302     0.78100
C3148       C  0.75219024  0.91803173  0.55984037     0.78100
C3149       C  0.80513047  0.91662278  0.50140500     0.78000
C3150       C  0.69944477  0.91655886  0.50156028     0.77900
O3151       O  0.78944797  0.89316395  0.75036717    -0.71200
O3152       O  0.71042180  0.89355126  0.75254681    -0.71400
O3153       O  0.74933219  0.89444515  0.70813128    -0.71300
O3154       O  0.75030347  0.89239684  0.79508546    -0.71300
O3155       O  0.75192544  0.93766409  0.79640534    -0.71200
O3156       O  0.75098700  0.93953613  0.70941246    -0.71200
O3157       O  0.71173419  0.93882594  0.75378392    -0.71200
O3158       O  0.79073201  0.93842850  0.75165750    -0.71400
V3159       V  0.74991748  0.89426677  0.75158917     1.35200
V3160       V  0.75125879  0.93773361  0.75285685     1.35200
C3161       C  0.80343687  0.91576259  0.75030666     0.78100
C3162       C  0.69772580  0.91624433  0.75323149     0.78100
C3163       C  0.75031822  0.91729573  0.69381353     0.78000
C3164       C  0.75132274  0.91471842  0.81049975     0.77900
O3165       O  0.91079021  0.78228577  0.95494832    -0.71200
O3166       O  0.90797842  0.78039045  0.54218623    -0.71400
O3167       O  0.90917105  0.74191780  0.99731483    -0.71300
O3168       O  0.90990839  0.82106479  0.49982036    -0.71300
O3169       O  0.86481002  0.82053593  0.99631023    -0.71200
O3170       O  0.86392239  0.74125397  0.49862174    -0.71200
O3171       O  0.86285920  0.78223851  0.54091745    -0.71200
O3172       O  0.86566986  0.77960775  0.95394507    -0.71400
V3173       V  0.90860265  0.78144930  0.99854472     1.35200
V3174       V  0.86518639  0.78091969  0.49743411     1.35200
C3175       C  0.88863392  0.78061461  0.93953999     0.78100
C3176       C  0.88490739  0.78131976  0.55636006     0.78100
C3177       C  0.88645018  0.72817679  0.49796767     0.78000
C3178       C  0.88751597  0.83421969  0.49828883     0.77900
O3179       O  0.90675373  0.78017128  0.70300812    -0.71200
O3180       O  0.90952304  0.78117109  0.79001085    -0.71400
O3181       O  0.90766378  0.74115792  0.74699216    -0.71300
O3182       O  0.90869081  0.82039318  0.74623044    -0.71300
O3183       O  0.86354037  0.81991751  0.75004914    -0.71200
O3184       O  0.86241661  0.74071658  0.74745863    -0.71200
O3185       O  0.86438712  0.77927816  0.79220124    -0.71200
O3186       O  0.86159849  0.78151816  0.70516222    -0.71400
V3187       V  0.90728045  0.78074532  0.74657058     1.35200
V3188       V  0.86385691  0.78035216  0.74866857     1.35200
C3189       C  0.88373472  0.78093847  0.68929242     0.78100
C3190       C  0.88742675  0.78002363  0.80598960     0.78100
C3191       C  0.88486268  0.72752545  0.74728587     0.78000
C3192       C  0.88629408  0.83356279  0.74835177     0.77900
O3193       O  0.71132863  0.66773447  0.50002707    -0.71200
O3194       O  0.79048181  0.66675131  0.99900233    -0.71400
O3195       O  0.75063786  0.66857237  0.95588809    -0.71300
O3196       O  0.75091912  0.66585037  0.54292707    -0.71300
O3197       O  0.74940873  0.62063992  0.54127114    -0.71200
O3198       O  0.74953497  0.62334464  0.95410504    -0.71200
O3199       O  0.78898500  0.62149817  0.49740798    -0.71200
O3200       O  0.70979635  0.62249389  0.99817265    -0.71400
V3201       V  0.75086512  0.66633196  0.49940872     1.35200
V3202       V  0.74943992  0.62286931  0.49772199     1.35200
C3203       C  0.69715812  0.64526481  0.49937047     0.78100
C3204       C  0.80312960  0.64398130  0.49838482     0.78100
C3205       C  0.74993250  0.64640291  0.94017400     0.78000
C3206       C  0.75004171  0.64284223  0.55694447     0.77900
O3207       O  0.74591730  0.62098723  0.70572746    -0.71200
O3208       O  0.74746191  0.62357752  0.79287742    -0.71400
O3209       O  0.70687663  0.62258680  0.75059114    -0.71300
O3210       O  0.78600836  0.62190819  0.74793896    -0.71300
O3211       O  0.78738950  0.66718140  0.74783162    -0.71200
O3212       O  0.70816964  0.66778700  0.74806460    -0.71200
O3213       O  0.74745654  0.66879037  0.79155228    -0.71200
O3214       O  0.74810398  0.66618836  0.70441804    -0.71400
V3215       V  0.74651869  0.62314729  0.74928311     1.35200
V3216       V  0.74775682  0.66660654  0.74798996     1.35200
C3217       C  0.74719530  0.64317616  0.69022014     0.78100
C3218       C  0.74772191  0.64661475  0.80704763     0.78100
C3219       C  0.69410208  0.64526562  0.74955161     0.78000
C3220       C  0.80008589  0.64443334  0.74752999     0.77900
O3221       O  0.58953249  0.78197595  0.54587785    -0.71200
O3222       O  0.59195155  0.77801207  0.95893397    -0.71400
O3223       O  0.59026391  0.74033040  0.50408366    -0.71300
O3224       O  0.59147565  0.81951243  0.00047274    -0.71300
O3225       O  0.63663560  0.81987621  0.50327502    -0.71200
O3226       O  0.63552059  0.74088020  0.00364473    -0.71200
O3227       O  0.63709796  0.77986094  0.95978227    -0.71200
O3228       O  0.63469227  0.78069761  0.54698678    -0.71400
V3229       V  0.59167798  0.77996015  0.50239679     1.35200
V3230       V  0.63510890  0.78034970  0.00340116     1.35200
C3231       C  0.61167643  0.78173282  0.56122624     0.78100
C3232       C  0.61487536  0.77838270  0.94445510     0.78100
C3233       C  0.61277203  0.72722683  0.50389089     0.78000
C3234       C  0.61430267  0.83306711  0.50164368     0.77900
O3235       O  0.58755354  0.78206028  0.70992375    -0.71200
O3236       O  0.59018258  0.77771686  0.79695123    -0.71400
O3237       O  0.58986083  0.81935888  0.75591115    -0.71300
O3238       O  0.58788505  0.74027073  0.75097894    -0.71300
O3239       O  0.63313468  0.74034081  0.75099111    -0.71200
O3240       O  0.63494375  0.81936114  0.75111345    -0.71200
O3241       O  0.63530646  0.77980931  0.79477591    -0.71200
O3242       O  0.63264506  0.77970475  0.70781493    -0.71400
V3243       V  0.58971754  0.77984056  0.75341309     1.35200
V3244       V  0.63312688  0.77983014  0.75127575     1.35200
C3245       C  0.60970479  0.78117635  0.69408423     0.78100
C3246       C  0.61321239  0.77836569  0.81077557     0.78100
C3247       C  0.61272885  0.83273079  0.75357677     0.78000
C3248       C  0.61023916  0.72693961  0.75041942     0.77900
O3249       O  0.92761488  0.91600116  0.52590708    -0.71200
O3250       O  0.84863621  0.91779632  0.52638652    -0.71400
O3251       O  0.88643983  0.87742535  0.52465633    -0.71300
O3252       O  0.89000016  0.95671747  0.52769733    -0.71300
O3253       O  0.88718267  0.95789719  0.97808821    -0.71200
O3254       O  0.88958150  0.87881856  0.97498369    -0.71200
O3255       O  0.84901355  0.91626955  0.97660099    -0.71200
O3256       O  0.92791451  0.92056163  0.97665422    -0.71400
V3257       V  0.88816898  0.91703868  0.52524921     1.35200
V3258       V  0.88845108  0.91836419  0.97752556     1.35200
C3259       C  0.94141910  0.91828403  0.00119694     0.78100
C3260       C  0.83546364  0.91679924  0.00149364     0.78100
C3261       C  0.88785721  0.86470246  0.49931718     0.78000
C3262       C  0.88853946  0.97080748  0.50335671     0.77900
O3263       O  0.92604510  0.91981502  0.77234958    -0.71200
O3264       O  0.84732191  0.91465803  0.77378567    -0.71400
O3265       O  0.88826776  0.87764618  0.77320140    -0.71300
O3266       O  0.88491036  0.95681496  0.77276120    -0.71300
O3267       O  0.88824748  0.95640181  0.72310308    -0.71200
O3268       O  0.88498612  0.87723840  0.72357824    -0.71200
O3269       O  0.84696467  0.91748129  0.72410585    -0.71200
O3270       O  0.92618299  0.91587492  0.72298726    -0.71400
V3271       V  0.88667592  0.91723326  0.77208071     1.35200
V3272       V  0.88658846  0.91679551  0.72434392     1.35200
C3273       C  0.93976862  0.91770375  0.74763682     0.78100
C3274       C  0.83377535  0.91581684  0.74927564     0.78100
C3275       C  0.88660296  0.86402900  0.74841458     0.78000
C3276       C  0.88637121  0.97010000  0.74780629     0.77900
O3277       O  0.92677248  0.64353906  0.97678873    -0.71200
O3278       O  0.84771860  0.64428688  0.97460015    -0.71400
O3279       O  0.88852661  0.68360749  0.97430490    -0.71300
O3280       O  0.88595224  0.60434902  0.97726361    -0.71300
O3281       O  0.88727301  0.60612310  0.52698282    -0.71200
O3282       O  0.88438683  0.68504412  0.52389809    -0.71200
O3283       O  0.84622382  0.64344206  0.52438356    -0.71200
O3284       O  0.92545026  0.64786391  0.52631812    -0.71400
V3285       V  0.88722680  0.64398686  0.97668008     1.35200
V3286       V  0.88584798  0.64558835  0.52444651     1.35200
C3287       C  0.93961881  0.64567180  0.50187018     0.78100
C3288       C  0.83356916  0.64375060  0.49913865     0.78100
C3289       C  0.88635837  0.69772543  0.99867829     0.78000
C3290       C  0.88675734  0.59177846  0.00264116     0.77900
O3291       O  0.92326765  0.64582226  0.72185870    -0.71200
O3292       O  0.84395473  0.64264916  0.72214180    -0.71400
O3293       O  0.88287398  0.68370864  0.72229357    -0.71300
O3294       O  0.88439095  0.60464782  0.72141879    -0.71300
O3295       O  0.88084171  0.60425505  0.77106959    -0.71200
O3296       O  0.88566714  0.68355554  0.77195496    -0.71200
O3297       O  0.84384404  0.64544200  0.77186194    -0.71200
O3298       O  0.92277482  0.64228797  0.77146106    -0.71400
V3299       V  0.88360036  0.64419109  0.72286252     1.35200
V3300       V  0.88329249  0.64390144  0.77065120     1.35200
C3301       C  0.93650294  0.64391848  0.74665044     0.78100
C3302       C  0.83050624  0.64415842  0.74711859     0.78100
C3303       C  0.88446656  0.69704951  0.74720804     0.78000
C3304       C  0.88255498  0.59096156  0.74605798     0.77900
O3305       O  0.57438516  0.64342660  0.52736414    -0.71200
O3306       O  0.65355832  0.64344437  0.52531685    -0.71400
O3307       O  0.61471130  0.68301908  0.52757701    -0.71300
O3308       O  0.61322106  0.60394763  0.52495519    -0.71300
O3309       O  0.61575039  0.60511903  0.97544654    -0.71200
O3310       O  0.61127649  0.68391745  0.97796949    -0.71200
O3311       O  0.65299333  0.64735650  0.97573819    -0.71200
O3312       O  0.57382616  0.64145155  0.97765866    -0.71400
V3313       V  0.61394741  0.64347548  0.52537127     1.35200
V3314       V  0.61342711  0.64446853  0.97763893     1.35200
C3315       C  0.56060275  0.64219027  0.00285226     0.78100
C3316       C  0.66669351  0.64552412  0.00017450     0.78100
C3317       C  0.61271189  0.69683761  0.50318278     0.78000
C3318       C  0.61521639  0.59094931  0.49979321     0.77900
O3319       O  0.57035456  0.64082931  0.77302238    -0.71200
O3320       O  0.64972657  0.64611343  0.77422031    -0.71400
O3321       O  0.60829035  0.68295497  0.77430515    -0.71300
O3322       O  0.61205020  0.60434649  0.77337874    -0.71300
O3323       O  0.61049698  0.60414825  0.72386717    -0.71200
O3324       O  0.61160421  0.68343785  0.72460883    -0.71200
O3325       O  0.65061156  0.64409566  0.72447170    -0.71200
O3326       O  0.57153697  0.64359965  0.72337005    -0.71400
V3327       V  0.61007730  0.64358335  0.77277551     1.35200
V3328       V  0.61103556  0.64381380  0.72501116     1.35200
C3329       C  0.55745392  0.64193717  0.74791651     0.78100
C3330       C  0.66359807  0.64531332  0.74946039     0.78100
C3331       C  0.60981610  0.69656517  0.74968005     0.78000
C3332       C  0.61174985  0.59063638  0.74865389     0.77900
O3333       O  0.57742316  0.91838812  0.97567535    -0.71200
O3334       O  0.65614810  0.91402090  0.97645844    -0.71400
O3335       O  0.61366107  0.87653291  0.97634252    -0.71300
O3336       O  0.61988252  0.95543134  0.97553469    -0.71300
O3337       O  0.61476206  0.95616085  0.52488388    -0.71200
O3338       O  0.61700883  0.87714924  0.52597523    -0.71200
O3339       O  0.65542766  0.91874023  0.52600096    -0.71200
O3340       O  0.57653195  0.91462700  0.52502578    -0.71400
V3341       V  0.61677308  0.91605090  0.97689599     1.35200
V3342       V  0.61596212  0.91665051  0.52458432     1.35200
C3343       C  0.56335163  0.91684837  0.50027284     0.78100
C3344       C  0.66914217  0.91647321  0.50134555     0.78100
C3345       C  0.61494271  0.86345399  0.00130240     0.78000
C3346       C  0.61750423  0.96938536  0.99998095     0.77900
O3347       O  0.57582081  0.91296153  0.72587175    -0.71200
O3348       O  0.65475091  0.91770294  0.72757281    -0.71400
O3349       O  0.61671368  0.87587031  0.72788559    -0.71300
O3350       O  0.61371791  0.95481327  0.72569923    -0.71300
O3351       O  0.61688218  0.95593629  0.77511945    -0.71200
O3352       O  0.61083703  0.87707832  0.77732259    -0.71200
O3353       O  0.65331104  0.91466936  0.77724200    -0.71200
O3354       O  0.57452744  0.91872970  0.77507648    -0.71400
V3355       V  0.61525790  0.91535022  0.72763896     1.35200
V3356       V  0.61392429  0.91655181  0.77530264     1.35200
C3357       C  0.56157521  0.91597440  0.75011993     0.78100
C3358       C  0.66739561  0.91629520  0.75271103     0.78100
C3359       C  0.61345411  0.86309674  0.75295185     0.78000
C3360       C  0.61523503  0.96898303  0.75014196     0.77900
C3361       C  0.61292608  0.55947389  0.74900772    -0.04700
C3362       C  0.60320436  0.54422419  0.77494334    -0.01900
C3363       C  0.60364516  0.51488233  0.77506477     0.03100
C3364       C  0.61461055  0.50009410  0.74968968    -0.04700
C3365       C  0.62507286  0.51529893  0.72413231    -0.01800
C3366       C  0.62425377  0.54469398  0.72379417     0.03100
C3367       C  0.59251770  0.55838208  0.80192478     0.37800
C3368       C  0.63761061  0.50093477  0.69831863     0.37800
C3369       C  0.63649765  0.55958063  0.69789176     0.36200
C3370       C  0.59192959  0.50009868  0.80135959     0.36200
N3371       N  0.64639577  0.57131019  0.67723775    -0.38600
N3372       N  0.58274849  0.98846740  0.82248666    -0.38600
N3373       N  0.64778215  0.98968135  0.67779205    -0.38100
N3374       N  0.58414564  0.56943967  0.82362691    -0.38100
C3375       C  0.61704553  0.55985330  0.49902401    -0.04700
C3376       C  0.62845183  0.54546309  0.52410246    -0.01900
C3377       C  0.62890231  0.51609454  0.52424715     0.03100
C3378       C  0.61783553  0.50049919  0.99943926    -0.04700
C3379       C  0.60724494  0.51484648  0.97393107    -0.01800
C3380       C  0.60750547  0.54423931  0.97338457     0.03100
C3381       C  0.64113838  0.56071548  0.54935724     0.37800
C3382       C  0.59500584  0.49954607  0.94843699     0.37800
C3383       C  0.59792217  0.55807274  0.94606438     0.36200
C3384       C  0.64165233  0.50209887  0.54978262     0.36200
N3385       N  0.59059098  0.56884652  0.92400072    -0.38600
N3386       N  0.65163195  0.99101434  0.57020719    -0.38600
N3387       N  0.58545096  0.98751121  0.92785455    -0.38100
N3388       N  0.65135687  0.57275968  0.56949288    -0.38100
C3389       C  0.96743745  0.64330368  0.74670305    -0.04700
C3390       C  0.98109681  0.62082757  0.76032884    -0.01900
C3391       C  0.51046545  0.61997312  0.75998834     0.03100
C3392       C  0.52649927  0.64209554  0.74715466    -0.04700
C3393       C  0.51283499  0.66453723  0.73344420    -0.01800
C3394       C  0.98345269  0.66507001  0.73309873     0.03100
C3395       C  0.96493366  0.59813057  0.77405937     0.37800
C3396       C  0.52902117  0.68747936  0.72025319     0.37800
C3397       C  0.96976256  0.68870678  0.71992359     0.36200
C3398       C  0.52401078  0.59540099  0.77102324     0.36200
N3399       N  0.95901882  0.70773119  0.70953635    -0.38600
N3400       N  0.53432943  0.57532977  0.77934266    -0.38600
N3401       N  0.54192031  0.70575667  0.70969708    -0.38100
N3402       N  0.95209991  0.58004427  0.78509601    -0.38100
C3403       C  0.97058477  0.64473870  0.50252640    -0.04700
C3404       C  0.98634167  0.66485586  0.51906999    -0.01900
C3405       C  0.51569381  0.66369714  0.51963683     0.03100
C3406       C  0.52962812  0.64245217  0.00357615    -0.04700
C3407       C  0.51385989  0.62205298  0.98754082    -0.01800
C3408       C  0.98455231  0.62334305  0.98671561     0.03100
C3409       C  0.97261738  0.68775388  0.53415397     0.37800
C3410       C  0.52757686  0.59877314  0.97320652     0.37800
C3411       C  0.96874265  0.60210497  0.97016734     0.36200
C3412       C  0.53161026  0.68499494  0.53597170     0.36200
N3413       N  0.95613045  0.58522344  0.95692318    -0.38600
N3414       N  0.54431884  0.70193555  0.54901906    -0.38600
N3415       N  0.53805500  0.57979770  0.96200855    -0.38100
N3416       N  0.96211680  0.70636957  0.54606678    -0.38100
C3417       C  0.97100443  0.91700660  0.74791889    -0.04700
C3418       C  0.98507367  0.90794922  0.77443051    -0.01900
C3419       C  0.51439836  0.90701126  0.77483134     0.03100
C3420       C  0.53043911  0.91629543  0.74931648    -0.04700
C3421       C  0.51649909  0.92585811  0.72304884    -0.01800
C3422       C  0.98710502  0.92527661  0.72193625     0.03100
C3423       C  0.96964417  0.89885268  0.80151308     0.37800
C3424       C  0.53222332  0.93755083  0.69737638     0.37800
C3425       C  0.97378514  0.93350103  0.69379253     0.36200
C3426       C  0.52783036  0.89561766  0.80152665     0.36200
N3427       N  0.96343451  0.93983515  0.67111699    -0.38600
N3428       N  0.53837994  0.88649128  0.82285022    -0.38600
N3429       N  0.54465869  0.94706718  0.67696621    -0.38100
N3430       N  0.95752858  0.89190008  0.82332011    -0.38100
C3431       C  0.88306476  0.56001747  0.74568515    -0.04700
C3432       C  0.90537329  0.54621184  0.73137098    -0.01900
C3433       C  0.90672257  0.51689294  0.73250644     0.03100
C3434       C  0.88546295  0.50102207  0.74731383    -0.04700
C3435       C  0.86278506  0.51480685  0.76091012    -0.01800
C3436       C  0.86155122  0.54414229  0.75998569     0.03100
C3437       C  0.92727009  0.56218168  0.71584500     0.37800
C3438       C  0.84006375  0.49881283  0.77484174     0.37800
C3439       C  0.83714266  0.55779299  0.77193346     0.36200
C3440       C  0.93072906  0.50324595  0.71959522     0.36200
N3441       N  0.81728789  0.56831340  0.78102446    -0.38600
N3442       N  0.95006245  0.99271525  0.70936859    -0.38600
N3443       N  0.82183366  0.98636249  0.78625407    -0.38100
N3444       N  0.94467248  0.57489179  0.70334152    -0.38100
C3445       C  0.97266790  0.91812109  0.50091466    -0.04700
C3446       C  0.98797676  0.92562064  0.52746712    -0.01900
C3447       C  0.51736334  0.92619909  0.52682473     0.03100
C3448       C  0.53217270  0.91769469  0.50025202    -0.04700
C3449       C  0.51690696  0.90989159  0.97381008    -0.01800
C3450       C  0.98753393  0.91041854  0.97402815     0.03100
C3451       C  0.97385565  0.93304680  0.55580655     0.37800
C3452       C  0.53111673  0.90069575  0.94617572     0.37800
C3453       C  0.97286564  0.90211026  0.94639147     0.36200
C3454       C  0.53213380  0.93674599  0.55352291     0.36200
N3455       N  0.96136907  0.89563871  0.92422771    -0.38600
N3456       N  0.54375678  0.94529249  0.57478547    -0.38600
N3457       N  0.54225364  0.89342277  0.92401074    -0.38100
N3458       N  0.96288341  0.93878358  0.57862944    -0.38100
C3459       C  0.88699337  0.56087483  0.50380028    -0.04700
C3460       C  0.90901936  0.54711194  0.51807502    -0.01900
C3461       C  0.90952720  0.51768655  0.51829694     0.03100
C3462       C  0.88794944  0.50179659  0.50436872    -0.04700
C3463       C  0.86566025  0.51564834  0.99068143    -0.01800
C3464       C  0.86519236  0.54500784  0.99041683     0.03100
C3465       C  0.93168403  0.56323369  0.53164818     0.37800
C3466       C  0.84258241  0.49972430  0.97775013     0.37800
C3467       C  0.84158536  0.55887691  0.97749025     0.36200
C3468       C  0.93293100  0.50391885  0.53171896     0.36200
N3469       N  0.82256636  0.56979641  0.96740350    -0.38600
N3470       N  0.95160463  0.99329422  0.54245005    -0.38600
N3471       N  0.82393910  0.98719156  0.96717373    -0.38100
N3472       N  0.94977802  0.57607420  0.54244652    -0.38100
C3473       C  0.61546686  0.77733225  0.91024113    -0.04700
C3474       C  0.63408146  0.79477123  0.89338265    -0.01900
C3475       C  0.63353137  0.79489362  0.86102420     0.03100
C3476       C  0.61429381  0.77761672  0.84499361    -0.04700
C3477       C  0.59612234  0.75965615  0.86185909    -0.01800
C3478       C  0.59688222  0.75934525  0.89422590     0.03100
C3479       C  0.65333648  0.81332794  0.90930875     0.37800
C3480       C  0.57712622  0.74075498  0.84597618     0.37800
C3481       C  0.57929714  0.73954306  0.91097307     0.36200
C3482       C  0.65219387  0.81368424  0.84432893     0.36200
N3483       N  0.56542485  0.72364314  0.92433444    -0.38600
N3484       N  0.66711233  0.82856222  0.83091511    -0.38600
N3485       N  0.56194117  0.72568834  0.83336249    -0.38100
N3486       N  0.66874200  0.82795165  0.92218017    -0.38100
C3487       C  0.61067154  0.78177840  0.59521673    -0.04700
C3488       C  0.62139351  0.75912616  0.61139429    -0.01900
C3489       C  0.62042948  0.75875470  0.64365284     0.03100
C3490       C  0.60905455  0.78119859  0.66010869    -0.04700
C3491       C  0.59795603  0.80376439  0.64399157    -0.01800
C3492       C  0.59875185  0.80404657  0.61159281     0.03100
C3493       C  0.63256716  0.73567599  0.59474344     0.37800
C3494       C  0.58654753  0.82707972  0.66074248     0.37800
C3495       C  0.58827761  0.82771871  0.59514472     0.36200
C3496       C  0.63006926  0.73465090  0.65993799     0.36200
N3497       N  0.58001609  0.84665812  0.58203038    -0.38600
N3498       N  0.63747490  0.71532950  0.67297995    -0.38600
N3499       N  0.57747198  0.84568252  0.67412565    -0.38100
N3500       N  0.64131107  0.71697510  0.58130582    -0.38100
C3501       C  0.74970940  0.64734433  0.90612370    -0.04700
C3502       C  0.72864144  0.66150119  0.89055978    -0.01900
C3503       C  0.72809231  0.66155259  0.85816396     0.03100
C3504       C  0.74864717  0.64751261  0.84110211    -0.04700
C3505       C  0.77022963  0.63426251  0.85671363    -0.01800
C3506       C  0.77065809  0.63402158  0.88902673     0.03100
C3507       C  0.70700684  0.67529997  0.90787040     0.37800
C3508       C  0.79301340  0.62227347  0.83958945     0.37800
C3509       C  0.79346826  0.62111802  0.90466072     0.36200
C3510       C  0.70594482  0.67545683  0.84240721     0.36200
N3511       N  0.81185531  0.61099420  0.91695113    -0.38600
N3512       N  0.68831250  0.68656231  0.82979665    -0.38600
N3513       N  0.81157747  0.61305379  0.82626212    -0.38100
N3514       N  0.68974536  0.68630868  0.92167803    -0.38100
C3515       C  0.74909085  0.64214143  0.59103982    -0.04700
C3516       C  0.76766546  0.62569144  0.60765923    -0.01900
C3517       C  0.76699943  0.62588296  0.64007057     0.03100
C3518       C  0.74761469  0.64235612  0.65610877    -0.04700
C3519       C  0.72889088  0.65852085  0.63942841    -0.01800
C3520       C  0.72960577  0.65838522  0.60711986     0.03100
C3521       C  0.78825524  0.60945888  0.59147005     0.37800
C3522       C  0.70833787  0.67478860  0.65555639     0.37800
C3523       C  0.70963902  0.67432782  0.59028211     0.36200
C3524       C  0.78720936  0.61019616  0.65690438     0.36200
N3525       N  0.69390233  0.68687991  0.57640071    -0.38600
N3526       N  0.80340680  0.59782998  0.67038160    -0.38600
N3527       N  0.69204549  0.68771446  0.66866025    -0.38100
N3528       N  0.80470863  0.59655104  0.57854651    -0.38100
C3529       C  0.88932402  0.77967501  0.90534104    -0.04700
C3530       C  0.87105527  0.76134551  0.88932971    -0.01900
C3531       C  0.87043716  0.76147008  0.85699254     0.03100
C3532       C  0.88847316  0.77953394  0.84014663    -0.04700
C3533       C  0.90750953  0.79706988  0.85611010    -0.01800
C3534       C  0.90783357  0.79725805  0.88848230     0.03100
C3535       C  0.85364972  0.74135689  0.90603284     0.37800
C3536       C  0.92627408  0.81566383  0.83928383     0.37800
C3537       C  0.92666621  0.81632064  0.90434051     0.36200
C3538       C  0.85181426  0.74218541  0.84110068     0.36200
N3539       N  0.94172559  0.83149618  0.91696867    -0.38600
N3540       N  0.83695717  0.72681443  0.82845269    -0.38600
N3541       N  0.94129610  0.83030706  0.82570106    -0.38100
N3542       N  0.83989600  0.72529764  0.91930678    -0.38100
C3543       C  0.88370523  0.78104553  0.59036231    -0.04700
C3544       C  0.87293729  0.80385025  0.60681168    -0.01900
C3545       C  0.87238550  0.80365546  0.63920316     0.03100
C3546       C  0.88286026  0.78077298  0.65531146    -0.04700
C3547       C  0.89287561  0.75769908  0.63882324    -0.01800
C3548       C  0.89310821  0.75776017  0.60652209     0.03100
C3549       C  0.86315369  0.82785901  0.59042747     0.37800
C3550       C  0.90194303  0.73331598  0.65506291     0.37800
C3551       C  0.90171615  0.73317091  0.59000086     0.36200
C3552       C  0.86175113  0.82733496  0.65594320     0.36200
N3553       N  0.90825259  0.71317949  0.57727687    -0.38600
N3554       N  0.85325553  0.84624527  0.66926462    -0.38600
N3555       N  0.90903201  0.71364800  0.66771614    -0.38100
N3556       N  0.85540956  0.84705210  0.57737233    -0.38100
C3557       C  0.75179040  0.91405475  0.84439482    -0.04700
C3558       C  0.72793286  0.90517822  0.86110594    -0.01900
C3559       C  0.72825382  0.90508228  0.89342947     0.03100
C3560       C  0.75230257  0.91422511  0.90920311    -0.04700
C3561       C  0.77621647  0.92284313  0.89247909    -0.01800
C3562       C  0.77601347  0.92261079  0.86018135     0.03100
C3563       C  0.70270209  0.89715508  0.84507073     0.37800
C3564       C  0.80132679  0.93132653  0.90846265     0.37800
C3565       C  0.80105451  0.93047660  0.84326669     0.36200
C3566       C  0.70353239  0.89635893  0.91042337     0.36200
N3567       N  0.82130232  0.93663557  0.83018375    -0.38600
N3568       N  0.68368305  0.88940786  0.92378488    -0.38600
N3569       N  0.82153487  0.93805263  0.92090966    -0.38100
N3570       N  0.68246111  0.89096003  0.83237813    -0.38100
C3571       C  0.75112244  0.91790707  0.65952408    -0.04700
C3572       C  0.73945355  0.94019515  0.64321643    -0.01900
C3573       C  0.74017464  0.94055089  0.61083318     0.03100
C3574       C  0.75246213  0.91855462  0.59414770    -0.04700
C3575       C  0.76479984  0.89669652  0.61050931    -0.01800
C3576       C  0.76400000  0.89628526  0.64281970     0.03100
C3577       C  0.72580348  0.96255278  0.65953436     0.37800
C3578       C  0.77933530  0.87484797  0.59429117     0.37800
C3579       C  0.77723312  0.87369246  0.65868628     0.36200
C3580       C  0.72756322  0.96345629  0.59490865     0.36200
N3581       N  0.78764245  0.85557040  0.67124853    -0.38600
N3582       N  0.71763311  0.98186640  0.58236195    -0.38600
N3583       N  0.79088363  0.85738137  0.58143799    -0.38100
N3584       N  0.71498978  0.98045407  0.67246185    -0.38100
loop_ 
_geom_bond_atom_site_label_1 
_geom_bond_atom_site_label_2 
_geom_bond_distance 
_geom_bond_site_symmetry_2 
_ccdc_geom_bond_type 
O1            V9   1.903       .  S
O1           C11   1.265       .  A
O2          V457   1.902       .  S
O2           C12   1.265       .  A
O3            V9   1.897       .  S
O3          C461   1.262       .  A
O4          V457   1.901       .  S
O4           C14   1.263       .  A
O5          V458   1.897       .  S
O5          C462   1.262       .  A
O6           V10   1.902       .  S
O6           C13   1.263       .  A
O7           V10   1.898       .  S
O7           C12   1.265       .  A
O8          V458   1.901       .  S
O8           C11   1.264       .  A
V9          O450   1.902       .  S
V9          O452   1.901       .  S
V9          V458   2.088       .  T
V10         O453   1.897       .  S
V10         O456   1.901   1_554  S
V10         V457   2.088       .  T
C11         C424   1.481       .  S
C12         C438   1.498       .  S
C13         O451   1.262       .  A
C13         C572   1.458       .  S
C14         O453   1.262       .  A
C14         C208   1.457       .  S
O15          V23   1.902       .  S
O15          C25   1.263       .  A
O16          V23   1.898       .  S
O16          C26   1.262       .  A
O17          V23   1.898       .  S
O17          C27   1.265       .  A
O18          V23   1.902       .  S
O18          C28   1.264       .  A
O19          V24   1.902       .  S
O19          C28   1.264       .  A
O20          V24   1.899       .  S
O20          C27   1.265       .  A
O21          V24   1.902       .  S
O21          C26   1.263       .  A
O22          V24   1.897       .  S
O22          C25   1.262       .  A
V23          V24   2.088       .  T
C25         C138   1.458       .  S
C26         C222   1.459       .  S
C27         C435   1.498       .  S
C28         C421   1.481       .  S
O29          V37   1.906       .  S
O29          C39   1.266       .  A
O30         V485   1.906   1_554  S
O30          C40   1.266       .  A
O31          V37   1.901       .  S
O31         C489   1.263       .  A
O32         V485   1.904       .  S
O32          C42   1.264       .  A
O33         V486   1.905       .  S
O33         C490   1.264       .  A
O34          V38   1.906       .  S
O34          C41   1.265       .  A
O35          V38   1.902   1_554  S
O35          C40   1.264       .  A
O36         V486   1.900       .  S
O36          C39   1.265       .  A
V37         O478   1.906       .  S
V37         O480   1.904       .  S
V37         V486   2.087       .  T
V38         O481   1.905       .  S
V38         O484   1.900       .  S
V38         V485   2.087       .  T
C39         C393   1.494       .  S
C40         C407   1.485       .  S
C41         O479   1.263       .  A
C41         C601   1.463       .  S
C42         O481   1.264       .  A
C42         C125   1.465       .  S
O43          V51   1.903       .  S
O43          C53   1.265       .  A
O44          V51   1.901       .  S
O44          C54   1.265       .  A
O45          V51   1.902       .  S
O45          C55   1.263       .  A
O46          V51   1.904       .  S
O46          C56   1.264       .  A
O47          V52   1.902       .  S
O47          C56   1.263       .  A
O48          V52   1.904       .  S
O48          C55   1.264       .  A
O49          V52   1.902       .  S
O49          C54   1.266       .  A
O50          V52   1.905       .  S
O50          C53   1.265       .  A
V51          V52   2.088       .  T
C53         C410   1.485       .  S
C54         C396   1.493       .  S
C55         C167   1.463       .  S
C56         C139   1.463       .  S
O57          V65   1.903   1_554  S
O57          C67   1.263   1_554  A
O58         V513   1.904       .  S
O58         C516   1.264       .  A
O59         V513   1.904       .  S
O59          C69   1.265       .  A
O60          V65   1.901   1_554  S
O60          C70   1.265       .  A
O61          V66   1.905   1_554  S
O61          C70   1.265       .  A
O62         V514   1.905       .  S
O62          C69   1.266       .  A
O63          V66   1.903       .  S
O63          C68   1.263       .  A
O64         V514   1.905       .  S
O64         C515   1.265       .  A
V65         O506   1.904       .  S
V65         O507   1.904       .  S
V65          V66   2.089       .  T
V66         O510   1.905       .  S
V66         O512   1.905       .  S
C67         O512   1.265       .  A
C67         C628   1.465   1_556  S
C68         O506   1.264       .  A
C68         C152   1.464       .  S
C69         C365   1.488       .  S
C70         C379   1.489       .  S
O71          V79   1.905       .  S
O71          C81   1.265       .  A
O72          V79   1.905       .  S
O72          C82   1.266       .  A
O73          V79   1.905       .  S
O73          C83   1.265       .  A
O74          V79   1.901       .  S
O74          C84   1.263       .  A
O75          V80   1.904       .  S
O75          C84   1.264       .  A
O76          V80   1.905       .  S
O76          C83   1.264       .  A
O77          V80   1.905       .  S
O77          C82   1.265       .  A
O78          V80   1.903       .  S
O78          C81   1.265       .  A
V79          V80   2.088       .  T
C81         C382   1.490       .  S
C82         C368   1.489       .  S
C83         C194   1.466       .  S
C84         C166   1.462       .  S
O85          V93   1.903       .  S
O85          C95   1.264       .  A
O86         V541   1.900       .  S
O86          C96   1.264       .  A
O87          V93   1.905       .  S
O87          C97   1.265       .  A
O88         V541   1.903       .  S
O88         C546   1.264       .  A
O89         V542   1.898       .  S
O89          C98   1.262       .  A
O90          V94   1.897       .  S
O90         C545   1.262       .  A
O91          V94   1.906       .  S
O91          C96   1.267       .  A
O92         V542   1.903       .  S
O92          C95   1.265       .  A
V93         O534   1.900   1_554  S
V93         O536   1.903       .  S
V93         V542   2.088       .  T
V94         O537   1.898       .  S
V94         O540   1.903       .  S
V94         V541   2.088       .  T
C95         C351   1.485       .  S
C96         C337   1.494       .  S
C97         O538   1.262       .  A
C97         C181   1.460       .  S
C98         O536   1.264       .  A
C98         C657   1.460       .  S
O99         V107   1.906       .  S
O99         C109   1.265       .  A
O100        V107   1.904       .  S
O100        C110   1.266       .  A
O101        V107   1.901       .  S
O101        C111   1.263       .  A
O102        V107   1.903       .  S
O102        C112   1.264       .  A
O103        V108   1.897       .  S
O103        C112   1.262       .  A
O104        V108   1.899       .  S
O104        C111   1.262       .  A
O105        V108   1.904       .  S
O105        C110   1.266       .  A
O106        V108   1.898       .  S
O106        C109   1.264       .  A
V107        V108   2.088       .  T
C109        C354   1.484       .  S
C110        C340   1.496       .  S
C111        C223   1.458       .  S
C112        C195   1.459       .  S
O113        V121   1.898       .  S
O113        C571   1.264       .  A
O114        V121   1.901       .  S
O114        C572   1.263       .  A
O115        V121   1.903       .  S
O115        C125   1.264   1_554  A
O116        V121   1.909       .  S
O116        C126   1.266       .  A
O117        V122   1.902       .  S
O117        C574   1.265       .  A
O118        V122   1.905       .  S
O118        C573   1.264       .  A
O119        V122   1.897       .  S
O119        C124   1.262       .  A
O120        V122   1.897       .  S
O120        C123   1.265       .  A
V121        V570   2.085   1_554  T
V122        V569   2.085       .  T
C123        O561   1.264       .  A
C123        C757   1.502       .  S
C124        O562   1.263       .  A
C124        C461   1.458       .  S
C125        O566   1.264       .  A
C126        O565   1.265   1_554  A
C126       C1222   1.489       .  S
O127        V135   1.894       .  S
O127        C137   1.264       .  A
O128        V135   1.893       .  S
O128        C138   1.260       .  A
O129        V135   1.906       .  S
O129        C139   1.265       .  A
O130        V135   1.906       .  S
O130        C140   1.266       .  A
O131        V136   1.904       .  S
O131        C140   1.265       .  A
O132        V136   1.900       .  S
O132        C139   1.263       .  A
O133        V136   1.906       .  S
O133        C138   1.265       .  A
O134        V136   1.905       .  S
O134        C137   1.266       .  A
V135        V136   2.085       .  T
C137        C281   1.503       .  S
C140       C1194   1.488       .  S
O141        V149   1.902       .  S
O141        C599   1.265       .  A
O142        V149   1.903       .  S
O142        C600   1.263       .  A
O143        V149   1.906       .  S
O143        C153   1.264       .  A
O144        V149   1.904       .  S
O144        C154   1.266       .  A
O145        V150   1.903       .  S
O145        C602   1.264       .  A
O146        V150   1.899       .  S
O146        C601   1.262   1_554  A
O147        V150   1.905       .  S
O147        C152   1.265   1_554  A
O148        V150   1.906       .  S
O148        C151   1.266       .  A
V149        V598   2.087       .  T
V150        V597   2.087   1_554  T
C151        O589   1.265   1_554  A
C151        C267   1.490       .  S
C152        O590   1.263       .  A
C153        O594   1.262       .  A
C153        C489   1.463       .  S
C154        O593   1.264       .  A
C154        C771   1.486       .  S
O155        V163   1.907       .  S
O155        C165   1.266       .  A
O156        V163   1.906       .  S
O156        C166   1.265       .  A
O157        V163   1.900       .  S
O157        C167   1.262       .  A
O158        V163   1.902       .  S
O158        C168   1.264       .  A
O159        V164   1.905       .  S
O159        C168   1.266       .  A
O160        V164   1.906       .  S
O160        C167   1.265       .  A
O161        V164   1.899       .  S
O161        C166   1.262       .  A
O162        V164   1.902       .  S
O162        C165   1.264       .  A
V163        V164   2.087       .  T
C165        C253   1.488       .  S
C168        C295   1.487       .  S
O169        V177   1.903       .  S
O169        C627   1.265       .  A
O170        V177   1.904       .  S
O170        C628   1.264       .  A
O171        V177   1.901       .  S
O171        C181   1.263       .  A
O172        V177   1.899       .  S
O172        C182   1.265   1_554  A
O173        V178   1.899       .  S
O173        C630   1.264       .  A
O174        V178   1.901       .  S
O174        C629   1.263       .  A
O175        V178   1.904       .  S
O175        C180   1.264       .  A
O176        V178   1.905       .  S
O176        C179   1.266       .  A
V177        V626   2.085   1_554  T
V178        V625   2.085       .  T
C179        O617   1.265       .  A
C179        C270   1.489       .  S
C180        O618   1.264       .  A
C180        C515   1.465       .  S
C181        O622   1.263   1_554  A
C182        O621   1.264       .  A
C182        C239   1.499       .  S
O183        V191   1.911       .  S
O183        C193   1.267       .  A
O184        V191   1.909       .  S
O184        C194   1.265       .  A
O185        V191   1.896       .  S
O185        C195   1.261       .  A
O186        V191   1.890       .  S
O186        C196   1.262       .  A
O187        V192   1.906       .  S
O187        C196   1.267       .  A
O188        V192   1.903       .  S
O188        C195   1.264       .  A
O189        V192   1.902       .  S
O189        C194   1.263       .  A
O190        V192   1.900       .  S
O190        C193   1.264       .  A
V191        V192   2.086       .  T
C193        C256   1.489       .  S
C196        C225   1.500       .  S
O197        V205   1.899       .  S
O197        C655   1.265       .  A
O198        V205   1.897       .  S
O198        C656   1.263       .  A
O199        V205   1.901       .  S
O199        C209   1.263       .  A
O200        V205   1.895       .  S
O200        C210   1.264       .  A
O201        V206   1.900       .  S
O201        C658   1.266       .  A
O202        V206   1.901       .  S
O202        C657   1.264       .  A
O203        V206   1.899       .  S
O203        C208   1.262       .  A
O204        V206   1.895       .  S
O204        C207   1.265       .  A
V205        V654   2.082       .  T
V206        V653   2.082   1_554  T
C207        O645   1.265   1_554  A
C207        C312   1.500       .  S
C208        O646   1.263   1_554  A
C209        O650   1.264       .  A
C209        C546   1.460       .  S
C210        O649   1.266       .  A
C210       C1138   1.495       .  S
O211        V219   1.898       .  S
O211        C221   1.265       .  A
O212        V219   1.899       .  S
O212        C222   1.263       .  A
O213        V219   1.899       .  S
O213        C223   1.263       .  A
O214        V219   1.901       .  S
O214        C224   1.265       .  A
O215        V220   1.894       .  S
O215        C224   1.264       .  A
O216        V220   1.901       .  S
O216        C223   1.263       .  A
O217        V220   1.901       .  S
O217        C222   1.263       .  A
O218        V220   1.899       .  S
O218        C221   1.266       .  A
V219        V220   2.082       .  T
C221        C284   1.498       .  S
C224       C1124   1.497       .  S
C225        C226   1.420       .  A
C225        C230   1.419       .  A
C226        C227   1.410       .  A
C226        C231   1.453       .  S
C227        C228   1.418       .  A
C227        C234   1.454       .  S
C228       C1120   1.497   1_545  S
C228        C229   1.418       .  A
C229        C230   1.414       .  A
C229        C232   1.452       .  S
C230        C233   1.453       .  S
C231        N238   1.158       .  T
C232       N1133   1.158   1_545  T
C233        N235   1.158       .  T
C234       N1132   1.158   1_545  T
N236       C1130   1.158       .  T
N237       C1128   1.158       .  T
C239        C240   1.419   1_556  A
C239        C692   1.419       .  A
C240        C241   1.412       .  A
C240        C245   1.453       .  S
C241        C690   1.416   1_554  A
C241        C248   1.453       .  S
C242       C1106   1.495   1_545  S
C242        C243   1.418       .  A
C242        C689   1.416       .  A
C243        C244   1.412       .  A
C243        C246   1.453   1_545  S
C244        C687   1.419       .  A
C244        C247   1.452       .  S
C245        N252   1.158       .  T
C246       N1147   1.158       .  T
C247        N249   1.158       .  T
C248       N1146   1.157   1_545  T
N250       C1144   1.157       .  T
N251       C1142   1.158       .  T
C253        C254   1.414       .  A
C253        C258   1.413       .  A
C254       C2047   1.413       .  A
C254        C259   1.452       .  S
C255        C256   1.412       .  A
C255       C2046   1.413   1_455  A
C255        C262   1.448       .  S
C256        C257   1.414       .  A
C257       C2050   1.413   1_455  A
C257        C260   1.452       .  S
C258       C2049   1.413       .  A
C258        C261   1.450       .  S
C259        N266   1.157       .  T
C260        N265   1.157       .  T
C261        N263   1.157       .  T
C262        N264   1.156       .  T
C267        C268   1.414       .  A
C267        C720   1.414   1_554  A
C268       C2061   1.414       .  A
C268        C273   1.449       .  S
C269       C2060   1.414   1_455  A
C269        C718   1.414       .  A
C269        C276   1.452       .  S
C270        C271   1.413       .  A
C270        C717   1.414       .  A
C271       C2064   1.412   1_455  A
C271        C274   1.449       .  S
C272        C715   1.414       .  A
C272       C2063   1.412       .  A
C272        C275   1.452       .  S
C273        N280   1.157       .  T
C274        N279   1.156       .  T
C275        N277   1.157       .  T
C276        N278   1.157       .  T
C281        C282   1.422       .  A
C281        C286   1.419       .  A
C282       C2075   1.412       .  A
C282        C287   1.453       .  S
C283        C284   1.416       .  A
C283       C2074   1.412   1_455  A
C283        C290   1.453       .  S
C284        C285   1.418       .  A
C285       C2078   1.414   1_455  A
C285        C288   1.453       .  S
C286       C2077   1.414       .  A
C286        C289   1.452       .  S
C287        N294   1.157       .  T
C288        N293   1.158       .  T
C289        N291   1.158       .  T
C290        N292   1.158       .  T
C295        C296   1.413       .  A
C295        C300   1.412       .  A
C296        C297   1.413       .  A
C296        C301   1.452       .  S
C297        C298   1.413       .  A
C297        C304   1.449       .  S
C298       C1036   1.488   1_545  S
C298        C299   1.413       .  A
C299        C300   1.413       .  A
C299        C302   1.450   1_545  S
C300        C303   1.449       .  S
C301        N308   1.157       .  T
C302       N1203   1.157       .  T
C303        N305   1.156       .  T
C304       N1202   1.156   1_545  T
N306       C1200   1.156       .  T
N307       C1198   1.157       .  T
C309        C571   1.502       .  S
C309        C310   1.420       .  A
C309        C762   1.420   1_554  A
C310       C2103   1.412       .  A
C310        C315   1.453       .  S
C311        C312   1.419       .  A
C311       C2102   1.412   1_455  A
C311        C318   1.454       .  S
C312        C761   1.419   1_554  A
C313        C760   1.419       .  A
C313       C2106   1.413   1_455  A
C313        C316   1.453       .  S
C314        C757   1.420       .  A
C314       C2105   1.413       .  A
C314        C317   1.453       .  S
C315        N322   1.158       .  T
C316        N321   1.158       .  T
C317        N319   1.157       .  T
C318        N320   1.157       .  T
C323        C602   1.486       .  S
C323        C324   1.413       .  A
C323        C776   1.411   1_554  A
C324        C325   1.415       .  A
C324        C329   1.452       .  S
C325        C326   1.414       .  A
C325        C332   1.449       .  S
C326       C1022   1.489   1_545  S
C326        C775   1.413   1_554  A
C327        C328   1.411       .  A
C327        C774   1.413       .  A
C327        C330   1.450   1_545  S
C328        C771   1.411       .  A
C328        C331   1.450       .  S
C329        N336   1.157       .  T
C330       N1231   1.157       .  T
C331        N333   1.157       .  T
C332       N1230   1.157   1_545  T
N334       C1228   1.157       .  T
N335       C1226   1.157       .  T
C337        C338   1.414       .  A
C337        C342   1.416       .  A
C338        C339   1.413       .  A
C338        C343   1.450       .  S
C339        C340   1.416       .  A
C339        C346   1.451       .  S
C340        C341   1.416       .  A
C341        C342   1.414       .  A
C341        C344   1.452       .  S
C342        C345   1.452       .  S
C343        N350   1.157       .  T
C344        N349   1.157       .  T
C345        N347   1.158       .  T
C346        N348   1.157       .  T
C351        C352   1.410       .  A
C351        C356   1.414       .  A
C352        C353   1.409       .  A
C352        C357   1.449       .  S
C353        C354   1.411       .  A
C353        C360   1.449       .  S
C354        C355   1.413       .  A
C355        C356   1.415       .  A
C355        C358   1.451       .  S
C356        C359   1.451       .  S
C357        N364   1.156       .  T
C358        N363   1.157       .  T
C359        N361   1.157       .  T
C360        N362   1.156       .  T
C365        C366   1.414       .  A
C365        C370   1.412       .  A
C366        C367   1.415       .  A
C366        C371   1.451       .  S
C367        C368   1.414       .  A
C367        C374   1.451       .  S
C368        C369   1.413       .  A
C369        C370   1.411       .  A
C369        C372   1.449       .  S
C370        C373   1.450       .  S
C371        N378   1.157       .  T
C372        N377   1.156       .  T
C373        N375   1.157       .  T
C374        N376   1.157       .  T
C379        C380   1.414       .  A
C379        C384   1.413       .  A
C380        C381   1.415       .  A
C380        C385   1.451       .  S
C381        C382   1.415       .  A
C381        C388   1.451       .  S
C382        C383   1.412       .  A
C383        C384   1.411       .  A
C383        C386   1.449       .  S
C384        C387   1.450       .  S
C385        N392   1.158       .  T
C386        N391   1.156       .  T
C387        N389   1.156       .  T
C388        N390   1.157       .  T
C393        C394   1.416       .  A
C393        C398   1.415       .  A
C394        C395   1.413       .  A
C394        C399   1.452       .  S
C395        C396   1.415       .  A
C395        C402   1.452       .  S
C396        C397   1.416       .  A
C397        C398   1.414       .  A
C397        C400   1.451       .  S
C398        C401   1.451       .  S
C399        N406   1.157       .  T
C400        N405   1.157       .  T
C401        N403   1.157       .  T
C402        N404   1.158       .  T
C407        C408   1.413       .  A
C407        C412   1.411       .  A
C408        C409   1.414       .  A
C408        C413   1.450       .  S
C409        C410   1.413       .  A
C409        C416   1.450       .  S
C410        C411   1.411       .  A
C411        C412   1.410       .  A
C411        C414   1.450       .  S
C412        C415   1.448       .  S
C413        N420   1.157       .  T
C414        N419   1.157       .  T
C415        N417   1.156       .  T
C416        N418   1.157       .  T
C421        C422   1.411       .  A
C421        C426   1.411       .  A
C422        C423   1.412       .  A
C422        C427   1.450       .  S
C423        C424   1.412       .  A
C423        C430   1.449       .  S
C424        C425   1.410       .  A
C425        C426   1.411       .  A
C425        C428   1.450       .  S
C426        C429   1.449       .  S
C427        N434   1.157       .  T
C428        N433   1.157       .  T
C429        N431   1.156       .  T
C430        N432   1.156       .  T
C435        C436   1.418       .  A
C435        C440   1.417       .  A
C436        C437   1.414       .  A
C436        C441   1.452       .  S
C437        C438   1.418       .  A
C437        C444   1.452       .  S
C438        C439   1.417       .  A
C439        C440   1.411       .  A
C439        C442   1.453       .  S
C440        C443   1.453       .  S
C441        N448   1.157       .  T
C442        N447   1.157       .  T
C443        N445   1.157       .  T
C444        N446   1.157       .  T
O449        V457   1.903   1_556  S
O449        C459   1.265       .  A
O450        C460   1.265       .  A
O451        V457   1.897       .  S
O452        C462   1.263       .  A
O454        V458   1.902       .  S
O454        C461   1.263       .  A
O455        V458   1.898       .  S
O455        C460   1.265       .  A
O456        C459   1.264       .  A
C459        C872   1.481       .  S
C460        C886   1.498       .  S
C462        C656   1.457       .  S
O463        V471   1.902       .  S
O463        C473   1.263       .  A
O464        V471   1.898       .  S
O464        C474   1.262       .  A
O465        V471   1.898       .  S
O465        C475   1.265       .  A
O466        V471   1.902       .  S
O466        C476   1.264       .  A
O467        V472   1.902       .  S
O467        C476   1.264       .  A
O468        V472   1.899       .  S
O468        C475   1.265       .  A
O469        V472   1.902       .  S
O469        C474   1.263       .  A
O470        V472   1.897       .  S
O470        C473   1.262       .  A
V471        V472   2.088       .  T
C473        C586   1.458       .  S
C474        C670   1.459       .  S
C475        C883   1.498       .  S
C476        C869   1.481       .  S
O477        V485   1.906       .  S
O477        C487   1.266       .  A
O478        C488   1.266       .  A
O479        V485   1.901       .  S
O480        C490   1.264       .  A
O482        V486   1.906       .  S
O482        C489   1.265       .  A
O483        V486   1.902       .  S
O483        C488   1.264       .  A
O484        C487   1.265       .  A
C487        C841   1.494       .  S
C488        C855   1.485       .  S
C490        C573   1.465       .  S
O491        V499   1.903       .  S
O491        C501   1.265       .  A
O492        V499   1.901       .  S
O492        C502   1.265       .  A
O493        V499   1.902       .  S
O493        C503   1.263       .  A
O494        V499   1.904       .  S
O494        C504   1.264       .  A
O495        V500   1.902       .  S
O495        C504   1.263       .  A
O496        V500   1.904       .  S
O496        C503   1.264       .  A
O497        V500   1.902       .  S
O497        C502   1.266       .  A
O498        V500   1.905       .  S
O498        C501   1.265       .  A
V499        V500   2.088       .  T
C501        C858   1.485       .  S
C502        C844   1.493       .  S
C503        C615   1.463       .  S
C504        C587   1.463       .  S
O505        V513   1.903       .  S
O505        C515   1.263       .  A
O507        C517   1.265       .  A
O508        V513   1.901       .  S
O508        C518   1.265       .  A
O509        V514   1.905       .  S
O509        C518   1.265       .  A
O510        C517   1.266       .  A
O511        V514   1.903       .  S
O511        C516   1.263       .  A
V513        V514   2.089       .  T
C516        C600   1.464       .  S
C517        C813   1.488       .  S
C518        C827   1.489       .  S
O519        V527   1.905       .  S
O519        C529   1.265       .  A
O520        V527   1.905       .  S
O520        C530   1.266       .  A
O521        V527   1.905       .  S
O521        C531   1.265       .  A
O522        V527   1.901       .  S
O522        C532   1.263       .  A
O523        V528   1.904       .  S
O523        C532   1.264       .  A
O524        V528   1.905       .  S
O524        C531   1.264       .  A
O525        V528   1.905       .  S
O525        C530   1.265       .  A
O526        V528   1.903       .  S
O526        C529   1.265       .  A
V527        V528   2.088       .  T
C529        C830   1.490       .  S
C530        C816   1.489       .  S
C531        C642   1.466       .  S
C532        C614   1.462       .  S
O533        V541   1.903       .  S
O533        C543   1.264       .  A
O534        C544   1.264       .  A
O535        V541   1.905       .  S
O535        C545   1.265       .  A
O537        C546   1.262       .  A
O538        V542   1.897       .  S
O539        V542   1.906   1_556  S
O539        C544   1.267       .  A
O540        C543   1.265       .  A
C543        C799   1.485       .  S
C544        C785   1.494       .  S
C545        C629   1.460       .  S
O547        V555   1.906       .  S
O547        C557   1.265       .  A
O548        V555   1.904       .  S
O548        C558   1.266       .  A
O549        V555   1.901       .  S
O549        C559   1.263       .  A
O550        V555   1.903       .  S
O550        C560   1.264       .  A
O551        V556   1.897       .  S
O551        C560   1.262       .  A
O552        V556   1.899       .  S
O552        C559   1.262       .  A
O553        V556   1.904       .  S
O553        C558   1.266       .  A
O554        V556   1.898       .  S
O554        C557   1.264       .  A
V555        V556   2.088       .  T
C557        C802   1.484       .  S
C558        C788   1.496       .  S
C559        C671   1.458       .  S
C560        C643   1.459       .  S
O561        V569   1.898       .  S
O562        V569   1.901       .  S
O563        V569   1.903       .  S
O563        C573   1.264       .  A
O564        V569   1.909       .  S
O564        C574   1.266       .  A
O565        V570   1.902       .  S
O566        V570   1.905       .  S
O567        V570   1.897       .  S
O567        C572   1.262   1_556  A
O568        V570   1.897       .  S
O568        C571   1.265   1_556  A
C574       C1670   1.489       .  S
O575        V583   1.894       .  S
O575        C585   1.264       .  A
O576        V583   1.893       .  S
O576        C586   1.260       .  A
O577        V583   1.906       .  S
O577        C587   1.265       .  A
O578        V583   1.906       .  S
O578        C588   1.266       .  A
O579        V584   1.904       .  S
O579        C588   1.265       .  A
O580        V584   1.900       .  S
O580        C587   1.263       .  A
O581        V584   1.906       .  S
O581        C586   1.265       .  A
O582        V584   1.905       .  S
O582        C585   1.266       .  A
V583        V584   2.085       .  T
C585        C729   1.503       .  S
C588       C1642   1.488       .  S
O589        V597   1.902       .  S
O590        V597   1.903       .  S
O591        V597   1.906       .  S
O591        C601   1.264       .  A
O592        V597   1.904       .  S
O592        C602   1.266   1_556  A
O593        V598   1.903       .  S
O594        V598   1.899       .  S
O595        V598   1.905       .  S
O595        C600   1.265       .  A
O596        V598   1.906       .  S
O596        C599   1.266       .  A
C599        C715   1.490       .  S
O603        V611   1.907       .  S
O603        C613   1.266       .  A
O604        V611   1.906       .  S
O604        C614   1.265       .  A
O605        V611   1.900       .  S
O605        C615   1.262       .  A
O606        V611   1.902       .  S
O606        C616   1.264       .  A
O607        V612   1.905       .  S
O607        C616   1.266       .  A
O608        V612   1.906       .  S
O608        C615   1.265       .  A
O609        V612   1.899       .  S
O609        C614   1.262       .  A
O610        V612   1.902       .  S
O610        C613   1.264       .  A
V611        V612   2.087       .  T
C613        C701   1.488       .  S
C616        C743   1.487       .  S
O617        V625   1.903       .  S
O618        V625   1.904       .  S
O619        V625   1.901       .  S
O619        C629   1.263       .  A
O620        V625   1.899       .  S
O620        C630   1.265       .  A
O621        V626   1.899       .  S
O622        V626   1.901       .  S
O623        V626   1.904       .  S
O623        C628   1.264   1_556  A
O624        V626   1.905       .  S
O624        C627   1.266   1_556  A
C627        C718   1.489       .  S
C630        C687   1.499       .  S
O631        V639   1.911       .  S
O631        C641   1.267       .  A
O632        V639   1.909       .  S
O632        C642   1.265       .  A
O633        V639   1.896       .  S
O633        C643   1.261       .  A
O634        V639   1.890       .  S
O634        C644   1.262       .  A
O635        V640   1.906       .  S
O635        C644   1.267       .  A
O636        V640   1.903       .  S
O636        C643   1.264       .  A
O637        V640   1.902       .  S
O637        C642   1.263       .  A
O638        V640   1.900       .  S
O638        C641   1.264       .  A
V639        V640   2.086       .  T
C641        C704   1.489       .  S
C644        C673   1.500       .  S
O645        V653   1.899       .  S
O646        V653   1.897       .  S
O647        V653   1.901       .  S
O647        C657   1.263   1_556  A
O648        V653   1.895       .  S
O648        C658   1.264   1_556  A
O649        V654   1.900       .  S
O650        V654   1.901       .  S
O651        V654   1.899       .  S
O651        C656   1.262       .  A
O652        V654   1.895       .  S
O652        C655   1.265       .  A
C655        C760   1.500       .  S
C658       C1586   1.495   1_554  S
O659        V667   1.898       .  S
O659        C669   1.265       .  A
O660        V667   1.899       .  S
O660        C670   1.263       .  A
O661        V667   1.899       .  S
O661        C671   1.263       .  A
O662        V667   1.901       .  S
O662        C672   1.265       .  A
O663        V668   1.894       .  S
O663        C672   1.264       .  A
O664        V668   1.901       .  S
O664        C671   1.263       .  A
O665        V668   1.901       .  S
O665        C670   1.263       .  A
O666        V668   1.899       .  S
O666        C669   1.266       .  A
V667        V668   2.082       .  T
C669        C732   1.498       .  S
C672       C1572   1.497       .  S
C673        C674   1.420       .  A
C673        C678   1.419       .  A
C674        C675   1.410       .  A
C674        C679   1.453       .  S
C675        C676   1.418       .  A
C675        C682   1.454       .  S
C676       C1568   1.497   1_545  S
C676        C677   1.418       .  A
C677        C678   1.414       .  A
C677        C680   1.452       .  S
C678        C681   1.453       .  S
C679        N686   1.158       .  T
C680       N1581   1.158   1_545  T
C681        N683   1.158       .  T
C682       N1580   1.158   1_545  T
N684       C1578   1.158       .  T
N685       C1576   1.158       .  T
C687        C688   1.419       .  A
C688        C689   1.412       .  A
C688        C693   1.453       .  S
C689        C696   1.453       .  S
C690       C1554   1.495   1_545  S
C690        C691   1.418       .  A
C691        C692   1.412       .  A
C691        C694   1.453   1_545  S
C692        C695   1.452       .  S
C693        N700   1.158       .  T
C694       N1595   1.158       .  T
C695        N697   1.158       .  T
C696       N1594   1.157   1_545  T
N698       C1592   1.157       .  T
N699       C1590   1.158       .  T
C701        C702   1.414       .  A
C701        C706   1.413       .  A
C702       C2495   1.413       .  A
C702        C707   1.452       .  S
C703       C2494   1.413   1_455  A
C703        C704   1.412       .  A
C703        C710   1.448       .  S
C704        C705   1.414       .  A
C705       C2498   1.413   1_455  A
C705        C708   1.452       .  S
C706       C2497   1.413       .  A
C706        C709   1.450       .  S
C707        N714   1.157       .  T
C708        N713   1.157       .  T
C709        N711   1.157       .  T
C710        N712   1.156       .  T
C715        C716   1.414       .  A
C716       C2509   1.414       .  A
C716        C721   1.449       .  S
C717       C2508   1.414   1_455  A
C717        C724   1.452       .  S
C718        C719   1.413   1_554  A
C719       C2512   1.412   1_455  A
C719        C722   1.449       .  S
C720       C2511   1.412       .  A
C720        C723   1.452       .  S
C721        N728   1.157       .  T
C722        N727   1.156       .  T
C723        N725   1.157       .  T
C724        N726   1.157       .  T
C729        C730   1.422       .  A
C729        C734   1.419       .  A
C730       C2523   1.412       .  A
C730        C735   1.453       .  S
C731       C2522   1.412   1_455  A
C731        C732   1.416       .  A
C731        C738   1.453       .  S
C732        C733   1.418       .  A
C733       C2526   1.414   1_455  A
C733        C736   1.453       .  S
C734       C2525   1.414       .  A
C734        C737   1.452       .  S
C735        N742   1.157       .  T
C736        N741   1.158       .  T
C737        N739   1.158       .  T
C738        N740   1.158       .  T
C743        C744   1.413       .  A
C743        C748   1.412       .  A
C744        C745   1.413       .  A
C744        C749   1.452       .  S
C745        C746   1.413       .  A
C745        C752   1.449       .  S
C746       C1484   1.488   1_545  S
C746        C747   1.413       .  A
C747        C748   1.413       .  A
C747        C750   1.450   1_545  S
C748        C751   1.449       .  S
C749        N756   1.157       .  T
C750       N1651   1.157       .  T
C751        N753   1.156       .  T
C752       N1650   1.156   1_545  T
N754       C1648   1.156       .  T
N755       C1646   1.157       .  T
C757        C758   1.420       .  A
C758       C2551   1.412       .  A
C758        C763   1.453       .  S
C759       C2550   1.412   1_455  A
C759        C760   1.419       .  A
C759        C766   1.454       .  S
C761       C2554   1.413   1_455  A
C761        C764   1.453       .  S
C762       C2553   1.413       .  A
C762        C765   1.453       .  S
C763        N770   1.158       .  T
C764        N769   1.158       .  T
C765        N767   1.157       .  T
C766        N768   1.157       .  T
C771        C772   1.413       .  A
C772        C773   1.415       .  A
C772        C777   1.452       .  S
C773        C774   1.414       .  A
C773        C780   1.449       .  S
C774       C1470   1.489   1_545  S
C775        C776   1.411       .  A
C775        C778   1.450   1_545  S
C776        C779   1.450       .  S
C777        N784   1.157       .  T
C778       N1679   1.157       .  T
C779        N781   1.157       .  T
C780       N1678   1.157   1_545  T
N782       C1676   1.157       .  T
N783       C1674   1.157       .  T
C785        C786   1.414       .  A
C785        C790   1.416       .  A
C786        C787   1.413       .  A
C786        C791   1.450       .  S
C787        C788   1.416       .  A
C787        C794   1.451       .  S
C788        C789   1.416       .  A
C789        C790   1.414       .  A
C789        C792   1.452       .  S
C790        C793   1.452       .  S
C791        N798   1.157       .  T
C792        N797   1.157       .  T
C793        N795   1.158       .  T
C794        N796   1.157       .  T
C799        C800   1.410       .  A
C799        C804   1.414       .  A
C800        C801   1.409       .  A
C800        C805   1.449       .  S
C801        C802   1.411       .  A
C801        C808   1.449       .  S
C802        C803   1.413       .  A
C803        C804   1.415       .  A
C803        C806   1.451       .  S
C804        C807   1.451       .  S
C805        N812   1.156       .  T
C806        N811   1.157       .  T
C807        N809   1.157       .  T
C808        N810   1.156       .  T
C813        C814   1.414       .  A
C813        C818   1.412       .  A
C814        C815   1.415       .  A
C814        C819   1.451       .  S
C815        C816   1.414       .  A
C815        C822   1.451       .  S
C816        C817   1.413       .  A
C817        C818   1.411       .  A
C817        C820   1.449       .  S
C818        C821   1.450       .  S
C819        N826   1.157       .  T
C820        N825   1.156       .  T
C821        N823   1.157       .  T
C822        N824   1.157       .  T
C827        C828   1.414       .  A
C827        C832   1.413       .  A
C828        C829   1.415       .  A
C828        C833   1.451       .  S
C829        C830   1.415       .  A
C829        C836   1.451       .  S
C830        C831   1.412       .  A
C831        C832   1.411       .  A
C831        C834   1.449       .  S
C832        C835   1.450       .  S
C833        N840   1.158       .  T
C834        N839   1.156       .  T
C835        N837   1.156       .  T
C836        N838   1.157       .  T
C841        C842   1.416       .  A
C841        C846   1.415       .  A
C842        C843   1.413       .  A
C842        C847   1.452       .  S
C843        C844   1.415       .  A
C843        C850   1.452       .  S
C844        C845   1.416       .  A
C845        C846   1.414       .  A
C845        C848   1.451       .  S
C846        C849   1.451       .  S
C847        N854   1.157       .  T
C848        N853   1.157       .  T
C849        N851   1.157       .  T
C850        N852   1.158       .  T
C855        C856   1.413       .  A
C855        C860   1.411       .  A
C856        C857   1.414       .  A
C856        C861   1.450       .  S
C857        C858   1.413       .  A
C857        C864   1.450       .  S
C858        C859   1.411       .  A
C859        C860   1.410       .  A
C859        C862   1.450       .  S
C860        C863   1.448       .  S
C861        N868   1.157       .  T
C862        N867   1.157       .  T
C863        N865   1.156       .  T
C864        N866   1.157       .  T
C869        C870   1.411       .  A
C869        C874   1.411       .  A
C870        C871   1.412       .  A
C870        C875   1.450       .  S
C871        C872   1.412       .  A
C871        C878   1.449       .  S
C872        C873   1.410       .  A
C873        C874   1.411       .  A
C873        C876   1.450       .  S
C874        C877   1.449       .  S
C875        N882   1.157       .  T
C876        N881   1.157       .  T
C877        N879   1.156       .  T
C878        N880   1.156       .  T
C883        C884   1.418       .  A
C883        C888   1.417       .  A
C884        C885   1.414       .  A
C884        C889   1.452       .  S
C885        C886   1.418       .  A
C885        C892   1.452       .  S
C886        C887   1.417       .  A
C887        C888   1.411       .  A
C887        C890   1.453       .  S
C888        C891   1.453       .  S
C889        N896   1.157       .  T
C890        N895   1.157       .  T
C891        N893   1.157       .  T
C892        N894   1.157       .  T
O897        V905   1.903       .  S
O897        C907   1.265       .  A
O898       V1353   1.902       .  S
O898        C908   1.265       .  A
O899        V905   1.897       .  S
O899       C1357   1.262       .  A
O900       V1353   1.900       .  S
O900        C910   1.263       .  A
O901       V1354   1.897       .  S
O901       C1358   1.262       .  A
O902        V906   1.902       .  S
O902        C909   1.263       .  A
O903        V906   1.898       .  S
O903        C908   1.265       .  A
O904       V1354   1.901       .  S
O904        C907   1.264       .  A
V905       O1346   1.902       .  S
V905       O1348   1.900       .  S
V905       V1354   2.088       .  T
V906       O1349   1.897       .  S
V906       O1352   1.901   1_554  S
V906       V1353   2.088       .  T
C907       C1320   1.481       .  S
C908       C1334   1.498       .  S
C909       O1347   1.262       .  A
C909       C1468   1.458       .  S
C910       O1349   1.262       .  A
C910       C1104   1.457       .  S
O911        V919   1.902       .  S
O911        C921   1.263       .  A
O912        V919   1.898       .  S
O912        C922   1.262       .  A
O913        V919   1.898       .  S
O913        C923   1.265       .  A
O914        V919   1.902       .  S
O914        C924   1.264       .  A
O915        V920   1.902       .  S
O915        C924   1.264       .  A
O916        V920   1.900       .  S
O916        C923   1.265       .  A
O917        V920   1.902       .  S
O917        C922   1.263       .  A
O918        V920   1.897       .  S
O918        C921   1.262       .  A
V919        V920   2.088       .  T
C921       C1034   1.458       .  S
C922       C1118   1.458       .  S
C923       C1331   1.498       .  S
C924       C1317   1.481       .  S
O925        V933   1.906       .  S
O925        C935   1.266       .  A
O926       V1381   1.906   1_554  S
O926        C936   1.266       .  A
O927        V933   1.901       .  S
O927       C1385   1.263       .  A
O928       V1381   1.903       .  S
O928        C938   1.264       .  A
O929       V1382   1.905       .  S
O929       C1386   1.264       .  A
O930        V934   1.906       .  S
O930        C937   1.265       .  A
O931        V934   1.902   1_554  S
O931        C936   1.264       .  A
O932       V1382   1.900       .  S
O932        C935   1.265       .  A
V933       O1374   1.906       .  S
V933       O1376   1.903       .  S
V933       V1382   2.087       .  T
V934       O1377   1.905       .  S
V934       O1380   1.900       .  S
V934       V1381   2.087       .  T
C935       C1289   1.494       .  S
C936       C1303   1.485       .  S
C937       O1375   1.263       .  A
C937       C1497   1.463       .  S
C938       O1377   1.264       .  A
C938       C1021   1.465       .  S
O939        V947   1.903       .  S
O939        C949   1.265       .  A
O940        V947   1.901       .  S
O940        C950   1.265       .  A
O941        V947   1.903       .  S
O941        C951   1.263       .  A
O942        V947   1.904       .  S
O942        C952   1.264       .  A
O943        V948   1.902       .  S
O943        C952   1.263       .  A
O944        V948   1.904       .  S
O944        C951   1.264       .  A
O945        V948   1.902       .  S
O945        C950   1.266       .  A
O946        V948   1.905       .  S
O946        C949   1.265       .  A
V947        V948   2.088       .  T
C949       C1306   1.485       .  S
C950       C1292   1.493       .  S
C951       C1063   1.464       .  S
C952       C1035   1.463       .  S
O953        V961   1.903   1_554  S
O953        C963   1.263   1_554  A
O954       V1409   1.904       .  S
O954       C1412   1.264       .  A
O955       V1409   1.904       .  S
O955        C965   1.265       .  A
O956        V961   1.900   1_554  S
O956        C966   1.265       .  A
O957        V962   1.905   1_554  S
O957        C966   1.265       .  A
O958       V1410   1.905       .  S
O958        C965   1.266       .  A
O959        V962   1.903       .  S
O959        C964   1.263       .  A
O960       V1410   1.905       .  S
O960       C1411   1.265       .  A
V961       O1402   1.904       .  S
V961       O1403   1.904       .  S
V961        V962   2.089       .  T
V962       O1406   1.905       .  S
V962       O1408   1.905       .  S
C963       O1408   1.265       .  A
C963       C1524   1.465   1_556  S
C964       O1402   1.264       .  A
C964       C1048   1.464       .  S
C965       C1261   1.488       .  S
C966       C1275   1.490       .  S
O967        V975   1.905       .  S
O967        C977   1.265       .  A
O968        V975   1.905       .  S
O968        C978   1.266       .  A
O969        V975   1.905       .  S
O969        C979   1.265       .  A
O970        V975   1.901       .  S
O970        C980   1.263       .  A
O971        V976   1.904       .  S
O971        C980   1.264       .  A
O972        V976   1.905       .  S
O972        C979   1.264       .  A
O973        V976   1.905       .  S
O973        C978   1.265       .  A
O974        V976   1.902       .  S
O974        C977   1.265       .  A
V975        V976   2.088       .  T
C977       C1278   1.490       .  S
C978       C1264   1.489       .  S
C979       C1090   1.466       .  S
C980       C1062   1.462       .  S
O981        V989   1.903       .  S
O981        C991   1.264       .  A
O982       V1437   1.900       .  S
O982        C992   1.265       .  A
O983        V989   1.905       .  S
O983        C993   1.265       .  A
O984       V1437   1.903       .  S
O984       C1442   1.264       .  A
O985       V1438   1.899       .  S
O985        C994   1.262       .  A
O986        V990   1.897       .  S
O986       C1441   1.262       .  A
O987        V990   1.906       .  S
O987        C992   1.267       .  A
O988       V1438   1.903       .  S
O988        C991   1.265       .  A
V989       O1430   1.900   1_554  S
V989       O1432   1.903       .  S
V989       V1438   2.088       .  T
V990       O1433   1.899       .  S
V990       O1436   1.903       .  S
V990       V1437   2.088       .  T
C991       C1247   1.484       .  S
C992       C1233   1.495       .  S
C993       O1434   1.262       .  A
C993       C1077   1.460       .  S
C994       O1432   1.264       .  A
C994       C1553   1.460       .  S
O995       V1003   1.906       .  S
O995       C1005   1.265       .  A
O996       V1003   1.905       .  S
O996       C1006   1.266       .  A
O997       V1003   1.901       .  S
O997       C1007   1.263       .  A
O998       V1003   1.904       .  S
O998       C1008   1.264       .  A
O999       V1004   1.897       .  S
O999       C1008   1.262       .  A
O1000      V1004   1.899       .  S
O1000      C1007   1.263       .  A
O1001      V1004   1.903       .  S
O1001      C1006   1.266       .  A
O1002      V1004   1.898       .  S
O1002      C1005   1.264       .  A
V1003      V1004   2.088       .  T
C1005      C1250   1.484       .  S
C1006      C1236   1.496       .  S
C1007      C1119   1.459       .  S
C1008      C1091   1.459       .  S
O1009      V1017   1.898       .  S
O1009      C1467   1.264       .  A
O1010      V1017   1.902       .  S
O1010      C1468   1.264       .  A
O1011      V1017   1.903       .  S
O1011      C1021   1.264   1_554  A
O1012      V1017   1.909       .  S
O1012      C1022   1.266       .  A
O1013      V1018   1.902       .  S
O1013      C1470   1.265       .  A
O1014      V1018   1.905       .  S
O1014      C1469   1.264       .  A
O1015      V1018   1.897       .  S
O1015      C1020   1.262       .  A
O1016      V1018   1.897       .  S
O1016      C1019   1.265       .  A
V1017      V1466   2.085   1_554  T
V1018      V1465   2.085       .  T
C1019      O1457   1.264       .  A
C1019      C1653   1.502       .  S
C1020      O1458   1.264       .  A
C1020      C1357   1.458       .  S
C1021      O1462   1.264       .  A
C1022      O1461   1.265   1_554  A
O1023      V1031   1.894       .  S
O1023      C1033   1.264       .  A
O1024      V1031   1.893       .  S
O1024      C1034   1.261       .  A
O1025      V1031   1.906       .  S
O1025      C1035   1.265       .  A
O1026      V1031   1.906       .  S
O1026      C1036   1.266       .  A
O1027      V1032   1.904       .  S
O1027      C1036   1.265       .  A
O1028      V1032   1.900       .  S
O1028      C1035   1.263       .  A
O1029      V1032   1.906       .  S
O1029      C1034   1.265       .  A
O1030      V1032   1.905       .  S
O1030      C1033   1.266       .  A
V1031      V1032   2.084       .  T
C1033      C1177   1.503       .  S
O1037      V1045   1.901       .  S
O1037      C1495   1.265       .  A
O1038      V1045   1.902       .  S
O1038      C1496   1.263       .  A
O1039      V1045   1.906       .  S
O1039      C1049   1.264       .  A
O1040      V1045   1.904       .  S
O1040      C1050   1.266       .  A
O1041      V1046   1.903       .  S
O1041      C1498   1.264       .  A
O1042      V1046   1.899       .  S
O1042      C1497   1.262   1_554  A
O1043      V1046   1.905       .  S
O1043      C1048   1.265   1_554  A
O1044      V1046   1.907       .  S
O1044      C1047   1.266       .  A
V1045      V1494   2.087       .  T
V1046      V1493   2.087   1_554  T
C1047      O1485   1.265   1_554  A
C1047      C1163   1.491       .  S
C1048      O1486   1.263       .  A
C1049      O1490   1.262       .  A
C1049      C1385   1.463       .  S
C1050      O1489   1.264       .  A
C1050      C1667   1.486       .  S
O1051      V1059   1.906       .  S
O1051      C1061   1.266       .  A
O1052      V1059   1.906       .  S
O1052      C1062   1.265       .  A
O1053      V1059   1.900       .  S
O1053      C1063   1.262       .  A
O1054      V1059   1.902       .  S
O1054      C1064   1.264       .  A
O1055      V1060   1.906       .  S
O1055      C1064   1.266       .  A
O1056      V1060   1.906       .  S
O1056      C1063   1.265       .  A
O1057      V1060   1.900       .  S
O1057      C1062   1.262       .  A
O1058      V1060   1.902       .  S
O1058      C1061   1.264       .  A
V1059      V1060   2.087       .  T
C1061      C1149   1.488       .  S
C1064      C1191   1.487       .  S
O1065      V1073   1.903       .  S
O1065      C1523   1.265       .  A
O1066      V1073   1.904       .  S
O1066      C1524   1.264       .  A
O1067      V1073   1.901       .  S
O1067      C1077   1.263       .  A
O1068      V1073   1.899       .  S
O1068      C1078   1.265   1_554  A
O1069      V1074   1.898       .  S
O1069      C1526   1.264       .  A
O1070      V1074   1.900       .  S
O1070      C1525   1.263       .  A
O1071      V1074   1.905       .  S
O1071      C1076   1.264       .  A
O1072      V1074   1.906       .  S
O1072      C1075   1.266       .  A
V1073      V1522   2.085   1_554  T
V1074      V1521   2.085       .  T
C1075      O1513   1.265       .  A
C1075      C1166   1.489       .  S
C1076      O1514   1.264       .  A
C1076      C1411   1.465       .  S
C1077      O1518   1.263   1_554  A
C1078      O1517   1.264       .  A
C1078      C1135   1.499       .  S
O1079      V1087   1.911       .  S
O1079      C1089   1.267       .  A
O1080      V1087   1.908       .  S
O1080      C1090   1.265       .  A
O1081      V1087   1.896       .  S
O1081      C1091   1.261       .  A
O1082      V1087   1.890       .  S
O1082      C1092   1.262       .  A
O1083      V1088   1.906       .  S
O1083      C1092   1.267       .  A
O1084      V1088   1.903       .  S
O1084      C1091   1.264       .  A
O1085      V1088   1.902       .  S
O1085      C1090   1.263       .  A
O1086      V1088   1.900       .  S
O1086      C1089   1.264       .  A
V1087      V1088   2.086       .  T
C1089      C1152   1.489       .  S
C1092      C1121   1.500       .  S
O1093      V1101   1.899       .  S
O1093      C1551   1.265       .  A
O1094      V1101   1.897       .  S
O1094      C1552   1.263       .  A
O1095      V1101   1.901       .  S
O1095      C1105   1.263       .  A
O1096      V1101   1.895       .  S
O1096      C1106   1.264       .  A
O1097      V1102   1.900       .  S
O1097      C1554   1.266   1_554  A
O1098      V1102   1.901       .  S
O1098      C1553   1.264       .  A
O1099      V1102   1.899       .  S
O1099      C1104   1.262       .  A
O1100      V1102   1.895       .  S
O1100      C1103   1.265       .  A
V1101      V1550   2.082       .  T
V1102      V1549   2.082   1_554  T
C1103      O1541   1.265   1_554  A
C1103      C1208   1.500       .  S
C1104      O1542   1.263   1_554  A
C1105      O1546   1.264       .  A
C1105      C1442   1.460       .  S
C1106      O1545   1.266       .  A
O1107      V1115   1.899       .  S
O1107      C1117   1.265       .  A
O1108      V1115   1.899       .  S
O1108      C1118   1.263       .  A
O1109      V1115   1.900       .  S
O1109      C1119   1.264       .  A
O1110      V1115   1.901       .  S
O1110      C1120   1.265       .  A
O1111      V1116   1.894       .  S
O1111      C1120   1.264       .  A
O1112      V1116   1.901       .  S
O1112      C1119   1.263       .  A
O1113      V1116   1.900       .  S
O1113      C1118   1.263       .  A
O1114      V1116   1.899       .  S
O1114      C1117   1.265       .  A
V1115      V1116   2.082       .  T
C1117      C1180   1.498       .  S
C1121      C1122   1.420       .  A
C1121      C1126   1.419       .  A
C1122      C1123   1.410       .  A
C1122      C1127   1.453       .  S
C1123      C1124   1.418       .  A
C1123      C1130   1.454       .  S
C1124      C1125   1.418       .  A
C1125      C1126   1.414       .  A
C1125      C1128   1.452       .  S
C1126      C1129   1.453       .  S
C1127      N1134   1.158       .  T
C1129      N1131   1.158       .  T
C1135      C1136   1.419   1_556  A
C1135      C1588   1.419       .  A
C1136      C1137   1.412       .  A
C1136      C1141   1.453       .  S
C1137      C1586   1.416   1_554  A
C1137      C1144   1.453       .  S
C1138      C1585   1.416       .  A
C1138      C1139   1.418       .  A
C1139      C1140   1.412       .  A
C1139      C1142   1.453       .  S
C1140      C1583   1.419       .  A
C1140      C1143   1.452       .  S
C1141      N1148   1.158       .  T
C1143      N1145   1.158       .  T
C1149      C1150   1.414       .  A
C1149      C1154   1.413       .  A
C1150      C2943   1.413       .  A
C1150      C1155   1.452       .  S
C1151      C2942   1.413   1_455  A
C1151      C1152   1.412       .  A
C1151      C1158   1.448       .  S
C1152      C1153   1.414       .  A
C1153      C2946   1.413   1_455  A
C1153      C1156   1.452       .  S
C1154      C2945   1.413       .  A
C1154      C1157   1.450       .  S
C1155      N1162   1.157       .  T
C1156      N1161   1.157       .  T
C1157      N1159   1.157       .  T
C1158      N1160   1.156       .  T
C1163      C1164   1.414       .  A
C1163      C1616   1.415   1_554  A
C1164      C2957   1.414       .  A
C1164      C1169   1.449       .  S
C1165      C2956   1.414   1_455  A
C1165      C1614   1.414       .  A
C1165      C1172   1.452       .  S
C1166      C1613   1.414       .  A
C1166      C1167   1.412       .  A
C1167      C2960   1.412   1_455  A
C1167      C1170   1.449       .  S
C1168      C1611   1.415       .  A
C1168      C2959   1.412       .  A
C1168      C1171   1.452       .  S
C1169      N1176   1.157       .  T
C1170      N1175   1.156       .  T
C1171      N1173   1.157       .  T
C1172      N1174   1.157       .  T
C1177      C1178   1.422       .  A
C1177      C1182   1.420       .  A
C1178      C2971   1.412       .  A
C1178      C1183   1.453       .  S
C1179      C2970   1.412   1_455  A
C1179      C1180   1.416       .  A
C1179      C1186   1.453       .  S
C1180      C1181   1.418       .  A
C1181      C2974   1.414   1_455  A
C1181      C1184   1.453       .  S
C1182      C2973   1.414       .  A
C1182      C1185   1.452       .  S
C1183      N1190   1.157       .  T
C1184      N1189   1.158       .  T
C1185      N1187   1.158       .  T
C1186      N1188   1.158       .  T
C1191      C1192   1.413       .  A
C1191      C1196   1.412       .  A
C1192      C1193   1.413       .  A
C1192      C1197   1.452       .  S
C1193      C1194   1.413       .  A
C1193      C1200   1.449       .  S
C1194      C1195   1.413       .  A
C1195      C1196   1.413       .  A
C1195      C1198   1.450       .  S
C1196      C1199   1.449       .  S
C1197      N1204   1.157       .  T
C1199      N1201   1.156       .  T
C1205      C1467   1.502       .  S
C1205      C1206   1.420       .  A
C1205      C1658   1.420   1_554  A
C1206      C2999   1.412       .  A
C1206      C1211   1.453       .  S
C1207      C2998   1.412   1_455  A
C1207      C1208   1.419       .  A
C1207      C1214   1.454       .  S
C1208      C1657   1.419   1_554  A
C1209      C1656   1.419       .  A
C1209      C3002   1.413   1_455  A
C1209      C1212   1.453       .  S
C1210      C1653   1.420       .  A
C1210      C3001   1.413       .  A
C1210      C1213   1.454       .  S
C1211      N1218   1.158       .  T
C1212      N1217   1.158       .  T
C1213      N1215   1.157       .  T
C1214      N1216   1.157       .  T
C1219      C1498   1.486       .  S
C1219      C1220   1.413       .  A
C1219      C1672   1.411   1_554  A
C1220      C1221   1.415       .  A
C1220      C1225   1.452       .  S
C1221      C1222   1.414       .  A
C1221      C1228   1.449       .  S
C1222      C1671   1.413   1_554  A
C1223      C1670   1.413       .  A
C1223      C1224   1.411       .  A
C1223      C1226   1.450       .  S
C1224      C1667   1.411       .  A
C1224      C1227   1.450       .  S
C1225      N1232   1.157       .  T
C1227      N1229   1.157       .  T
C1233      C1234   1.414       .  A
C1233      C1238   1.416       .  A
C1234      C1235   1.413       .  A
C1234      C1239   1.450       .  S
C1235      C1236   1.416       .  A
C1235      C1242   1.451       .  S
C1236      C1237   1.416       .  A
C1237      C1238   1.414       .  A
C1237      C1240   1.452       .  S
C1238      C1241   1.452       .  S
C1239      N1246   1.157       .  T
C1240      N1245   1.157       .  T
C1241      N1243   1.158       .  T
C1242      N1244   1.157       .  T
C1247      C1248   1.410       .  A
C1247      C1252   1.414       .  A
C1248      C1249   1.409       .  A
C1248      C1253   1.449       .  S
C1249      C1250   1.411       .  A
C1249      C1256   1.449       .  S
C1250      C1251   1.413       .  A
C1251      C1252   1.415       .  A
C1251      C1254   1.451       .  S
C1252      C1255   1.451       .  S
C1253      N1260   1.156       .  T
C1254      N1259   1.157       .  T
C1255      N1257   1.157       .  T
C1256      N1258   1.156       .  T
C1261      C1262   1.414       .  A
C1261      C1266   1.412       .  A
C1262      C1263   1.415       .  A
C1262      C1267   1.451       .  S
C1263      C1264   1.414       .  A
C1263      C1270   1.451       .  S
C1264      C1265   1.413       .  A
C1265      C1266   1.411       .  A
C1265      C1268   1.449       .  S
C1266      C1269   1.450       .  S
C1267      N1274   1.157       .  T
C1268      N1273   1.156       .  T
C1269      N1271   1.157       .  T
C1270      N1272   1.157       .  T
C1275      C1276   1.414       .  A
C1275      C1280   1.413       .  A
C1276      C1277   1.415       .  A
C1276      C1281   1.451       .  S
C1277      C1278   1.415       .  A
C1277      C1284   1.451       .  S
C1278      C1279   1.412       .  A
C1279      C1280   1.411       .  A
C1279      C1282   1.449       .  S
C1280      C1283   1.450       .  S
C1281      N1288   1.158       .  T
C1282      N1287   1.156       .  T
C1283      N1285   1.156       .  T
C1284      N1286   1.157       .  T
C1289      C1290   1.416       .  A
C1289      C1294   1.415       .  A
C1290      C1291   1.413       .  A
C1290      C1295   1.452       .  S
C1291      C1292   1.415       .  A
C1291      C1298   1.452       .  S
C1292      C1293   1.416       .  A
C1293      C1294   1.414       .  A
C1293      C1296   1.451       .  S
C1294      C1297   1.451       .  S
C1295      N1302   1.157       .  T
C1296      N1301   1.157       .  T
C1297      N1299   1.157       .  T
C1298      N1300   1.158       .  T
C1303      C1304   1.413       .  A
C1303      C1308   1.411       .  A
C1304      C1305   1.414       .  A
C1304      C1309   1.450       .  S
C1305      C1306   1.413       .  A
C1305      C1312   1.450       .  S
C1306      C1307   1.411       .  A
C1307      C1308   1.410       .  A
C1307      C1310   1.450       .  S
C1308      C1311   1.448       .  S
C1309      N1316   1.157       .  T
C1310      N1315   1.157       .  T
C1311      N1313   1.156       .  T
C1312      N1314   1.157       .  T
C1317      C1318   1.411       .  A
C1317      C1322   1.411       .  A
C1318      C1319   1.412       .  A
C1318      C1323   1.450       .  S
C1319      C1320   1.412       .  A
C1319      C1326   1.449       .  S
C1320      C1321   1.410       .  A
C1321      C1322   1.410       .  A
C1321      C1324   1.450       .  S
C1322      C1325   1.449       .  S
C1323      N1330   1.157       .  T
C1324      N1329   1.157       .  T
C1325      N1327   1.156       .  T
C1326      N1328   1.156       .  T
C1331      C1332   1.418       .  A
C1331      C1336   1.418       .  A
C1332      C1333   1.414       .  A
C1332      C1337   1.452       .  S
C1333      C1334   1.418       .  A
C1333      C1340   1.452       .  S
C1334      C1335   1.418       .  A
C1335      C1336   1.411       .  A
C1335      C1338   1.453       .  S
C1336      C1339   1.453       .  S
C1337      N1344   1.157       .  T
C1338      N1343   1.157       .  T
C1339      N1341   1.157       .  T
C1340      N1342   1.157       .  T
O1345      V1353   1.903   1_556  S
O1345      C1355   1.265       .  A
O1346      C1356   1.265       .  A
O1347      V1353   1.897       .  S
O1348      C1358   1.263       .  A
O1350      V1354   1.902       .  S
O1350      C1357   1.263       .  A
O1351      V1354   1.898       .  S
O1351      C1356   1.265       .  A
O1352      C1355   1.264       .  A
C1355      C1768   1.481       .  S
C1356      C1782   1.498       .  S
C1358      C1552   1.457       .  S
O1359      V1367   1.902       .  S
O1359      C1369   1.263       .  A
O1360      V1367   1.898       .  S
O1360      C1370   1.262       .  A
O1361      V1367   1.898       .  S
O1361      C1371   1.265       .  A
O1362      V1367   1.902       .  S
O1362      C1372   1.264       .  A
O1363      V1368   1.902       .  S
O1363      C1372   1.264       .  A
O1364      V1368   1.900       .  S
O1364      C1371   1.265       .  A
O1365      V1368   1.902       .  S
O1365      C1370   1.263       .  A
O1366      V1368   1.897       .  S
O1366      C1369   1.262       .  A
V1367      V1368   2.088       .  T
C1369      C1482   1.458       .  S
C1370      C1566   1.458       .  S
C1371      C1779   1.498       .  S
C1372      C1765   1.481       .  S
O1373      V1381   1.906       .  S
O1373      C1383   1.266       .  A
O1374      C1384   1.266       .  A
O1375      V1381   1.901       .  S
O1376      C1386   1.264       .  A
O1378      V1382   1.906       .  S
O1378      C1385   1.265       .  A
O1379      V1382   1.902       .  S
O1379      C1384   1.264       .  A
O1380      C1383   1.265       .  A
C1383      C1737   1.494       .  S
C1384      C1751   1.485       .  S
C1386      C1469   1.465       .  S
O1387      V1395   1.903       .  S
O1387      C1397   1.265       .  A
O1388      V1395   1.901       .  S
O1388      C1398   1.265       .  A
O1389      V1395   1.903       .  S
O1389      C1399   1.263       .  A
O1390      V1395   1.904       .  S
O1390      C1400   1.264       .  A
O1391      V1396   1.902       .  S
O1391      C1400   1.263       .  A
O1392      V1396   1.904       .  S
O1392      C1399   1.264       .  A
O1393      V1396   1.902       .  S
O1393      C1398   1.266       .  A
O1394      V1396   1.905       .  S
O1394      C1397   1.265       .  A
V1395      V1396   2.088       .  T
C1397      C1754   1.485       .  S
C1398      C1740   1.493       .  S
C1399      C1511   1.464       .  S
C1400      C1483   1.463       .  S
O1401      V1409   1.903       .  S
O1401      C1411   1.263       .  A
O1403      C1413   1.265       .  A
O1404      V1409   1.900       .  S
O1404      C1414   1.265       .  A
O1405      V1410   1.905       .  S
O1405      C1414   1.265       .  A
O1406      C1413   1.266       .  A
O1407      V1410   1.903       .  S
O1407      C1412   1.263       .  A
V1409      V1410   2.089       .  T
C1412      C1496   1.464       .  S
C1413      C1709   1.488       .  S
C1414      C1723   1.490       .  S
O1415      V1423   1.905       .  S
O1415      C1425   1.265       .  A
O1416      V1423   1.905       .  S
O1416      C1426   1.266       .  A
O1417      V1423   1.905       .  S
O1417      C1427   1.265       .  A
O1418      V1423   1.901       .  S
O1418      C1428   1.263       .  A
O1419      V1424   1.904       .  S
O1419      C1428   1.264       .  A
O1420      V1424   1.905       .  S
O1420      C1427   1.264       .  A
O1421      V1424   1.905       .  S
O1421      C1426   1.265       .  A
O1422      V1424   1.902       .  S
O1422      C1425   1.265       .  A
V1423      V1424   2.088       .  T
C1425      C1726   1.490       .  S
C1426      C1712   1.489       .  S
C1427      C1538   1.466       .  S
C1428      C1510   1.462       .  S
O1429      V1437   1.903       .  S
O1429      C1439   1.264       .  A
O1430      C1440   1.265       .  A
O1431      V1437   1.905       .  S
O1431      C1441   1.265       .  A
O1433      C1442   1.262       .  A
O1434      V1438   1.897       .  S
O1435      V1438   1.906   1_556  S
O1435      C1440   1.267       .  A
O1436      C1439   1.265       .  A
C1439      C1695   1.484       .  S
C1440      C1681   1.495       .  S
C1441      C1525   1.460       .  S
O1443      V1451   1.906       .  S
O1443      C1453   1.265       .  A
O1444      V1451   1.905       .  S
O1444      C1454   1.266       .  A
O1445      V1451   1.901       .  S
O1445      C1455   1.263       .  A
O1446      V1451   1.904       .  S
O1446      C1456   1.264       .  A
O1447      V1452   1.897       .  S
O1447      C1456   1.262       .  A
O1448      V1452   1.899       .  S
O1448      C1455   1.263       .  A
O1449      V1452   1.903       .  S
O1449      C1454   1.266       .  A
O1450      V1452   1.898       .  S
O1450      C1453   1.264       .  A
V1451      V1452   2.088       .  T
C1453      C1698   1.484       .  S
C1454      C1684   1.496       .  S
C1455      C1567   1.459       .  S
C1456      C1539   1.459       .  S
O1457      V1465   1.898       .  S
O1458      V1465   1.902       .  S
O1459      V1465   1.903       .  S
O1459      C1469   1.264       .  A
O1460      V1465   1.909       .  S
O1460      C1470   1.266       .  A
O1461      V1466   1.902       .  S
O1462      V1466   1.905       .  S
O1463      V1466   1.897       .  S
O1463      C1468   1.262   1_556  A
O1464      V1466   1.897       .  S
O1464      C1467   1.265   1_556  A
O1471      V1479   1.894       .  S
O1471      C1481   1.264       .  A
O1472      V1479   1.893       .  S
O1472      C1482   1.261       .  A
O1473      V1479   1.906       .  S
O1473      C1483   1.265       .  A
O1474      V1479   1.906       .  S
O1474      C1484   1.266       .  A
O1475      V1480   1.904       .  S
O1475      C1484   1.265       .  A
O1476      V1480   1.900       .  S
O1476      C1483   1.263       .  A
O1477      V1480   1.906       .  S
O1477      C1482   1.265       .  A
O1478      V1480   1.905       .  S
O1478      C1481   1.266       .  A
V1479      V1480   2.084       .  T
C1481      C1625   1.503       .  S
O1485      V1493   1.901       .  S
O1486      V1493   1.902       .  S
O1487      V1493   1.906       .  S
O1487      C1497   1.264       .  A
O1488      V1493   1.904       .  S
O1488      C1498   1.266   1_556  A
O1489      V1494   1.903       .  S
O1490      V1494   1.899       .  S
O1491      V1494   1.905       .  S
O1491      C1496   1.265       .  A
O1492      V1494   1.907       .  S
O1492      C1495   1.266       .  A
C1495      C1611   1.491       .  S
O1499      V1507   1.906       .  S
O1499      C1509   1.266       .  A
O1500      V1507   1.906       .  S
O1500      C1510   1.265       .  A
O1501      V1507   1.900       .  S
O1501      C1511   1.262       .  A
O1502      V1507   1.902       .  S
O1502      C1512   1.264       .  A
O1503      V1508   1.906       .  S
O1503      C1512   1.266       .  A
O1504      V1508   1.906       .  S
O1504      C1511   1.265       .  A
O1505      V1508   1.900       .  S
O1505      C1510   1.262       .  A
O1506      V1508   1.902       .  S
O1506      C1509   1.264       .  A
V1507      V1508   2.087       .  T
C1509      C1597   1.488       .  S
C1512      C1639   1.487       .  S
O1513      V1521   1.903       .  S
O1514      V1521   1.904       .  S
O1515      V1521   1.901       .  S
O1515      C1525   1.263       .  A
O1516      V1521   1.899       .  S
O1516      C1526   1.265       .  A
O1517      V1522   1.898       .  S
O1518      V1522   1.900       .  S
O1519      V1522   1.905       .  S
O1519      C1524   1.264   1_556  A
O1520      V1522   1.906       .  S
O1520      C1523   1.266   1_556  A
C1523      C1614   1.489       .  S
C1526      C1583   1.499       .  S
O1527      V1535   1.911       .  S
O1527      C1537   1.267       .  A
O1528      V1535   1.908       .  S
O1528      C1538   1.265       .  A
O1529      V1535   1.896       .  S
O1529      C1539   1.261       .  A
O1530      V1535   1.890       .  S
O1530      C1540   1.262       .  A
O1531      V1536   1.906       .  S
O1531      C1540   1.267       .  A
O1532      V1536   1.903       .  S
O1532      C1539   1.264       .  A
O1533      V1536   1.902       .  S
O1533      C1538   1.263       .  A
O1534      V1536   1.900       .  S
O1534      C1537   1.264       .  A
V1535      V1536   2.086       .  T
C1537      C1600   1.489       .  S
C1540      C1569   1.500       .  S
O1541      V1549   1.899       .  S
O1542      V1549   1.897       .  S
O1543      V1549   1.901       .  S
O1543      C1553   1.263   1_556  A
O1544      V1549   1.895       .  S
O1544      C1554   1.264       .  A
O1545      V1550   1.900       .  S
O1546      V1550   1.901       .  S
O1547      V1550   1.899       .  S
O1547      C1552   1.262       .  A
O1548      V1550   1.895       .  S
O1548      C1551   1.265       .  A
C1551      C1656   1.500       .  S
O1555      V1563   1.899       .  S
O1555      C1565   1.265       .  A
O1556      V1563   1.899       .  S
O1556      C1566   1.263       .  A
O1557      V1563   1.900       .  S
O1557      C1567   1.264       .  A
O1558      V1563   1.901       .  S
O1558      C1568   1.265       .  A
O1559      V1564   1.894       .  S
O1559      C1568   1.264       .  A
O1560      V1564   1.901       .  S
O1560      C1567   1.263       .  A
O1561      V1564   1.900       .  S
O1561      C1566   1.263       .  A
O1562      V1564   1.899       .  S
O1562      C1565   1.265       .  A
V1563      V1564   2.082       .  T
C1565      C1628   1.498       .  S
C1569      C1570   1.420       .  A
C1569      C1574   1.419       .  A
C1570      C1571   1.410       .  A
C1570      C1575   1.453       .  S
C1571      C1572   1.418       .  A
C1571      C1578   1.454       .  S
C1572      C1573   1.418       .  A
C1573      C1574   1.414       .  A
C1573      C1576   1.452       .  S
C1574      C1577   1.453       .  S
C1575      N1582   1.158       .  T
C1577      N1579   1.158       .  T
C1583      C1584   1.419       .  A
C1584      C1585   1.412       .  A
C1584      C1589   1.453       .  S
C1585      C1592   1.453       .  S
C1586      C1587   1.418       .  A
C1587      C1588   1.412       .  A
C1587      C1590   1.453       .  S
C1588      C1591   1.452       .  S
C1589      N1596   1.158       .  T
C1591      N1593   1.158       .  T
C1597      C1598   1.414       .  A
C1597      C1602   1.413       .  A
C1598      C3391   1.413       .  A
C1598      C1603   1.452       .  S
C1599      C3390   1.413   1_455  A
C1599      C1600   1.412       .  A
C1599      C1606   1.448       .  S
C1600      C1601   1.414       .  A
C1601      C3394   1.413   1_455  A
C1601      C1604   1.452       .  S
C1602      C3393   1.413       .  A
C1602      C1605   1.450       .  S
C1603      N1610   1.157       .  T
C1604      N1609   1.157       .  T
C1605      N1607   1.157       .  T
C1606      N1608   1.156       .  T
C1611      C1612   1.414       .  A
C1612      C3405   1.414       .  A
C1612      C1617   1.449       .  S
C1613      C3404   1.414   1_455  A
C1613      C1620   1.452       .  S
C1614      C1615   1.412   1_554  A
C1615      C3408   1.412   1_455  A
C1615      C1618   1.449       .  S
C1616      C3407   1.412       .  A
C1616      C1619   1.452       .  S
C1617      N1624   1.157       .  T
C1618      N1623   1.156       .  T
C1619      N1621   1.157       .  T
C1620      N1622   1.157       .  T
C1625      C1626   1.422       .  A
C1625      C1630   1.420       .  A
C1626      C3419   1.412       .  A
C1626      C1631   1.453       .  S
C1627      C3418   1.412   1_455  A
C1627      C1628   1.416       .  A
C1627      C1634   1.453       .  S
C1628      C1629   1.418       .  A
C1629      C3422   1.414   1_455  A
C1629      C1632   1.453       .  S
C1630      C3421   1.414       .  A
C1630      C1633   1.452       .  S
C1631      N1638   1.157       .  T
C1632      N1637   1.158       .  T
C1633      N1635   1.158       .  T
C1634      N1636   1.158       .  T
C1639      C1640   1.413       .  A
C1639      C1644   1.412       .  A
C1640      C1641   1.413       .  A
C1640      C1645   1.452       .  S
C1641      C1642   1.413       .  A
C1641      C1648   1.449       .  S
C1642      C1643   1.413       .  A
C1643      C1644   1.413       .  A
C1643      C1646   1.450       .  S
C1644      C1647   1.449       .  S
C1645      N1652   1.157       .  T
C1647      N1649   1.156       .  T
C1653      C1654   1.420       .  A
C1654      C3447   1.412       .  A
C1654      C1659   1.453       .  S
C1655      C3446   1.412   1_455  A
C1655      C1656   1.419       .  A
C1655      C1662   1.454       .  S
C1657      C3450   1.413   1_455  A
C1657      C1660   1.453       .  S
C1658      C3449   1.413       .  A
C1658      C1661   1.454       .  S
C1659      N1666   1.158       .  T
C1660      N1665   1.158       .  T
C1661      N1663   1.157       .  T
C1662      N1664   1.157       .  T
C1667      C1668   1.413       .  A
C1668      C1669   1.415       .  A
C1668      C1673   1.452       .  S
C1669      C1670   1.414       .  A
C1669      C1676   1.449       .  S
C1671      C1672   1.411       .  A
C1671      C1674   1.450       .  S
C1672      C1675   1.450       .  S
C1673      N1680   1.157       .  T
C1675      N1677   1.157       .  T
C1681      C1682   1.414       .  A
C1681      C1686   1.416       .  A
C1682      C1683   1.413       .  A
C1682      C1687   1.450       .  S
C1683      C1684   1.416       .  A
C1683      C1690   1.451       .  S
C1684      C1685   1.416       .  A
C1685      C1686   1.414       .  A
C1685      C1688   1.452       .  S
C1686      C1689   1.452       .  S
C1687      N1694   1.157       .  T
C1688      N1693   1.157       .  T
C1689      N1691   1.158       .  T
C1690      N1692   1.157       .  T
C1695      C1696   1.410       .  A
C1695      C1700   1.414       .  A
C1696      C1697   1.409       .  A
C1696      C1701   1.449       .  S
C1697      C1698   1.411       .  A
C1697      C1704   1.449       .  S
C1698      C1699   1.413       .  A
C1699      C1700   1.415       .  A
C1699      C1702   1.451       .  S
C1700      C1703   1.451       .  S
C1701      N1708   1.156       .  T
C1702      N1707   1.157       .  T
C1703      N1705   1.157       .  T
C1704      N1706   1.156       .  T
C1709      C1710   1.414       .  A
C1709      C1714   1.412       .  A
C1710      C1711   1.415       .  A
C1710      C1715   1.451       .  S
C1711      C1712   1.414       .  A
C1711      C1718   1.451       .  S
C1712      C1713   1.413       .  A
C1713      C1714   1.411       .  A
C1713      C1716   1.449       .  S
C1714      C1717   1.450       .  S
C1715      N1722   1.157       .  T
C1716      N1721   1.156       .  T
C1717      N1719   1.157       .  T
C1718      N1720   1.157       .  T
C1723      C1724   1.414       .  A
C1723      C1728   1.413       .  A
C1724      C1725   1.415       .  A
C1724      C1729   1.451       .  S
C1725      C1726   1.415       .  A
C1725      C1732   1.451       .  S
C1726      C1727   1.412       .  A
C1727      C1728   1.411       .  A
C1727      C1730   1.449       .  S
C1728      C1731   1.450       .  S
C1729      N1736   1.158       .  T
C1730      N1735   1.156       .  T
C1731      N1733   1.156       .  T
C1732      N1734   1.157       .  T
C1737      C1738   1.416       .  A
C1737      C1742   1.415       .  A
C1738      C1739   1.413       .  A
C1738      C1743   1.452       .  S
C1739      C1740   1.415       .  A
C1739      C1746   1.452       .  S
C1740      C1741   1.416       .  A
C1741      C1742   1.414       .  A
C1741      C1744   1.451       .  S
C1742      C1745   1.451       .  S
C1743      N1750   1.157       .  T
C1744      N1749   1.157       .  T
C1745      N1747   1.157       .  T
C1746      N1748   1.158       .  T
C1751      C1752   1.413       .  A
C1751      C1756   1.411       .  A
C1752      C1753   1.414       .  A
C1752      C1757   1.450       .  S
C1753      C1754   1.413       .  A
C1753      C1760   1.450       .  S
C1754      C1755   1.411       .  A
C1755      C1756   1.410       .  A
C1755      C1758   1.450       .  S
C1756      C1759   1.448       .  S
C1757      N1764   1.157       .  T
C1758      N1763   1.157       .  T
C1759      N1761   1.156       .  T
C1760      N1762   1.157       .  T
C1765      C1766   1.411       .  A
C1765      C1770   1.411       .  A
C1766      C1767   1.412       .  A
C1766      C1771   1.450       .  S
C1767      C1768   1.412       .  A
C1767      C1774   1.449       .  S
C1768      C1769   1.410       .  A
C1769      C1770   1.410       .  A
C1769      C1772   1.450       .  S
C1770      C1773   1.449       .  S
C1771      N1778   1.157       .  T
C1772      N1777   1.157       .  T
C1773      N1775   1.156       .  T
C1774      N1776   1.156       .  T
C1779      C1780   1.418       .  A
C1779      C1784   1.418       .  A
C1780      C1781   1.414       .  A
C1780      C1785   1.452       .  S
C1781      C1782   1.418       .  A
C1781      C1788   1.452       .  S
C1782      C1783   1.418       .  A
C1783      C1784   1.411       .  A
C1783      C1786   1.453       .  S
C1784      C1787   1.453       .  S
C1785      N1792   1.157       .  T
C1786      N1791   1.157       .  T
C1787      N1789   1.157       .  T
C1788      N1790   1.157       .  T
O1793      V1801   1.903       .  S
O1793      C1803   1.265       .  A
O1794      V2249   1.902       .  S
O1794      C1804   1.265       .  A
O1795      V1801   1.897       .  S
O1795      C2253   1.262       .  A
O1796      V2249   1.901       .  S
O1796      C1806   1.263       .  A
O1797      V2250   1.897       .  S
O1797      C2254   1.262       .  A
O1798      V1802   1.902       .  S
O1798      C1805   1.263       .  A
O1799      V1802   1.898       .  S
O1799      C1804   1.265       .  A
O1800      V2250   1.901       .  S
O1800      C1803   1.264       .  A
V1801      O2242   1.902       .  S
V1801      O2244   1.901       .  S
V1801      V2250   2.088       .  T
V1802      O2245   1.897       .  S
V1802      O2248   1.901   1_554  S
V1802      V2249   2.088       .  T
C1803      C2216   1.481       .  S
C1804      C2230   1.498       .  S
C1805      O2243   1.262       .  A
C1805      C2364   1.458       .  S
C1806      O2245   1.262       .  A
C1806      C2000   1.457       .  S
O1807      V1815   1.902       .  S
O1807      C1817   1.263       .  A
O1808      V1815   1.898       .  S
O1808      C1818   1.262       .  A
O1809      V1815   1.898       .  S
O1809      C1819   1.265       .  A
O1810      V1815   1.902       .  S
O1810      C1820   1.264       .  A
O1811      V1816   1.902       .  S
O1811      C1820   1.264       .  A
O1812      V1816   1.899       .  S
O1812      C1819   1.265       .  A
O1813      V1816   1.902       .  S
O1813      C1818   1.263       .  A
O1814      V1816   1.897       .  S
O1814      C1817   1.262       .  A
V1815      V1816   2.088       .  T
C1817      C1930   1.458       .  S
C1818      C2014   1.459       .  S
C1819      C2227   1.498       .  S
C1820      C2213   1.481       .  S
O1821      V1829   1.906       .  S
O1821      C1831   1.266       .  A
O1822      V2277   1.906   1_554  S
O1822      C1832   1.266       .  A
O1823      V1829   1.901       .  S
O1823      C2281   1.263       .  A
O1824      V2277   1.904       .  S
O1824      C1834   1.264       .  A
O1825      V2278   1.905       .  S
O1825      C2282   1.264       .  A
O1826      V1830   1.906       .  S
O1826      C1833   1.265       .  A
O1827      V1830   1.902   1_554  S
O1827      C1832   1.264       .  A
O1828      V2278   1.900       .  S
O1828      C1831   1.265       .  A
V1829      O2270   1.906       .  S
V1829      O2272   1.904       .  S
V1829      V2278   2.087       .  T
V1830      O2273   1.905       .  S
V1830      O2276   1.900       .  S
V1830      V2277   2.087       .  T
C1831      C2185   1.494       .  S
C1832      C2199   1.485       .  S
C1833      O2271   1.263       .  A
C1833      C2393   1.463       .  S
C1834      O2273   1.264       .  A
C1834      C1917   1.465       .  S
O1835      V1843   1.903       .  S
O1835      C1845   1.265       .  A
O1836      V1843   1.901       .  S
O1836      C1846   1.265       .  A
O1837      V1843   1.902       .  S
O1837      C1847   1.263       .  A
O1838      V1843   1.904       .  S
O1838      C1848   1.264       .  A
O1839      V1844   1.902       .  S
O1839      C1848   1.263       .  A
O1840      V1844   1.904       .  S
O1840      C1847   1.264       .  A
O1841      V1844   1.902       .  S
O1841      C1846   1.266       .  A
O1842      V1844   1.905       .  S
O1842      C1845   1.265       .  A
V1843      V1844   2.088       .  T
C1845      C2202   1.485       .  S
C1846      C2188   1.493       .  S
C1847      C1959   1.463       .  S
C1848      C1931   1.463       .  S
O1849      V1857   1.903   1_554  S
O1849      C1859   1.263   1_554  A
O1850      V2305   1.904       .  S
O1850      C2308   1.264       .  A
O1851      V2305   1.904       .  S
O1851      C1861   1.265       .  A
O1852      V1857   1.901   1_554  S
O1852      C1862   1.265       .  A
O1853      V1858   1.905   1_554  S
O1853      C1862   1.265       .  A
O1854      V2306   1.905       .  S
O1854      C1861   1.266       .  A
O1855      V1858   1.903       .  S
O1855      C1860   1.263       .  A
O1856      V2306   1.905       .  S
O1856      C2307   1.265       .  A
V1857      O2298   1.904       .  S
V1857      O2299   1.904       .  S
V1857      V1858   2.089       .  T
V1858      O2302   1.905       .  S
V1858      O2304   1.905       .  S
C1859      O2304   1.265       .  A
C1859      C2420   1.465   1_556  S
C1860      O2298   1.264       .  A
C1860      C1944   1.464       .  S
C1861      C2157   1.488       .  S
C1862      C2171   1.489       .  S
O1863      V1871   1.905       .  S
O1863      C1873   1.265       .  A
O1864      V1871   1.905       .  S
O1864      C1874   1.266       .  A
O1865      V1871   1.905       .  S
O1865      C1875   1.265       .  A
O1866      V1871   1.901       .  S
O1866      C1876   1.263       .  A
O1867      V1872   1.904       .  S
O1867      C1876   1.264       .  A
O1868      V1872   1.905       .  S
O1868      C1875   1.264       .  A
O1869      V1872   1.905       .  S
O1869      C1874   1.265       .  A
O1870      V1872   1.903       .  S
O1870      C1873   1.265       .  A
V1871      V1872   2.088       .  T
C1873      C2174   1.490       .  S
C1874      C2160   1.489       .  S
C1875      C1986   1.466       .  S
C1876      C1958   1.462       .  S
O1877      V1885   1.903       .  S
O1877      C1887   1.264       .  A
O1878      V2333   1.900       .  S
O1878      C1888   1.264       .  A
O1879      V1885   1.905       .  S
O1879      C1889   1.265       .  A
O1880      V2333   1.903       .  S
O1880      C2338   1.264       .  A
O1881      V2334   1.898       .  S
O1881      C1890   1.262       .  A
O1882      V1886   1.897       .  S
O1882      C2337   1.262       .  A
O1883      V1886   1.906       .  S
O1883      C1888   1.267       .  A
O1884      V2334   1.903       .  S
O1884      C1887   1.265       .  A
V1885      O2326   1.900   1_554  S
V1885      O2328   1.903       .  S
V1885      V2334   2.088       .  T
V1886      O2329   1.898       .  S
V1886      O2332   1.903       .  S
V1886      V2333   2.088       .  T
C1887      C2143   1.485       .  S
C1888      C2129   1.494       .  S
C1889      O2330   1.262       .  A
C1889      C1973   1.460       .  S
C1890      O2328   1.264       .  A
C1890      C2449   1.460       .  S
O1891      V1899   1.906       .  S
O1891      C1901   1.265       .  A
O1892      V1899   1.904       .  S
O1892      C1902   1.266       .  A
O1893      V1899   1.901       .  S
O1893      C1903   1.263       .  A
O1894      V1899   1.903       .  S
O1894      C1904   1.264       .  A
O1895      V1900   1.897       .  S
O1895      C1904   1.262       .  A
O1896      V1900   1.899       .  S
O1896      C1903   1.262       .  A
O1897      V1900   1.904       .  S
O1897      C1902   1.266       .  A
O1898      V1900   1.898       .  S
O1898      C1901   1.264       .  A
V1899      V1900   2.088       .  T
C1901      C2146   1.484       .  S
C1902      C2132   1.496       .  S
C1903      C2015   1.458       .  S
C1904      C1987   1.459       .  S
O1905      V1913   1.898       .  S
O1905      C2363   1.264       .  A
O1906      V1913   1.901       .  S
O1906      C2364   1.263       .  A
O1907      V1913   1.903       .  S
O1907      C1917   1.264   1_554  A
O1908      V1913   1.909       .  S
O1908      C1918   1.266       .  A
O1909      V1914   1.902       .  S
O1909      C2366   1.265       .  A
O1910      V1914   1.905       .  S
O1910      C2365   1.264       .  A
O1911      V1914   1.897       .  S
O1911      C1916   1.262       .  A
O1912      V1914   1.897       .  S
O1912      C1915   1.265       .  A
V1913      V2362   2.085   1_554  T
V1914      V2361   2.085       .  T
C1915      O2353   1.264       .  A
C1915      C2549   1.502       .  S
C1916      O2354   1.263       .  A
C1916      C2253   1.458       .  S
C1917      O2358   1.264       .  A
C1918      O2357   1.265   1_554  A
C1918      C3014   1.489       .  S
O1919      V1927   1.894       .  S
O1919      C1929   1.264       .  A
O1920      V1927   1.893       .  S
O1920      C1930   1.260       .  A
O1921      V1927   1.906       .  S
O1921      C1931   1.265       .  A
O1922      V1927   1.906       .  S
O1922      C1932   1.266       .  A
O1923      V1928   1.904       .  S
O1923      C1932   1.265       .  A
O1924      V1928   1.900       .  S
O1924      C1931   1.263       .  A
O1925      V1928   1.906       .  S
O1925      C1930   1.265       .  A
O1926      V1928   1.905       .  S
O1926      C1929   1.266       .  A
V1927      V1928   2.085       .  T
C1929      C2073   1.503       .  S
C1932      C2986   1.488       .  S
O1933      V1941   1.902       .  S
O1933      C2391   1.265       .  A
O1934      V1941   1.903       .  S
O1934      C2392   1.263       .  A
O1935      V1941   1.906       .  S
O1935      C1945   1.264       .  A
O1936      V1941   1.904       .  S
O1936      C1946   1.266       .  A
O1937      V1942   1.903       .  S
O1937      C2394   1.264       .  A
O1938      V1942   1.899       .  S
O1938      C2393   1.262   1_554  A
O1939      V1942   1.905       .  S
O1939      C1944   1.265   1_554  A
O1940      V1942   1.906       .  S
O1940      C1943   1.266       .  A
V1941      V2390   2.087       .  T
V1942      V2389   2.087   1_554  T
C1943      O2381   1.265   1_554  A
C1943      C2059   1.490       .  S
C1944      O2382   1.263       .  A
C1945      O2386   1.262       .  A
C1945      C2281   1.463       .  S
C1946      O2385   1.264       .  A
C1946      C2563   1.486       .  S
O1947      V1955   1.907       .  S
O1947      C1957   1.266       .  A
O1948      V1955   1.906       .  S
O1948      C1958   1.265       .  A
O1949      V1955   1.900       .  S
O1949      C1959   1.262       .  A
O1950      V1955   1.902       .  S
O1950      C1960   1.264       .  A
O1951      V1956   1.905       .  S
O1951      C1960   1.266       .  A
O1952      V1956   1.906       .  S
O1952      C1959   1.265       .  A
O1953      V1956   1.899       .  S
O1953      C1958   1.262       .  A
O1954      V1956   1.902       .  S
O1954      C1957   1.264       .  A
V1955      V1956   2.087       .  T
C1957      C2045   1.488       .  S
C1960      C2087   1.487       .  S
O1961      V1969   1.903       .  S
O1961      C2419   1.265       .  A
O1962      V1969   1.904       .  S
O1962      C2420   1.264       .  A
O1963      V1969   1.901       .  S
O1963      C1973   1.263       .  A
O1964      V1969   1.899       .  S
O1964      C1974   1.265   1_554  A
O1965      V1970   1.899       .  S
O1965      C2422   1.264       .  A
O1966      V1970   1.901       .  S
O1966      C2421   1.263       .  A
O1967      V1970   1.904       .  S
O1967      C1972   1.264       .  A
O1968      V1970   1.905       .  S
O1968      C1971   1.266       .  A
V1969      V2418   2.085   1_554  T
V1970      V2417   2.085       .  T
C1971      O2409   1.265       .  A
C1971      C2062   1.489       .  S
C1972      O2410   1.264       .  A
C1972      C2307   1.465       .  S
C1973      O2414   1.263   1_554  A
C1974      O2413   1.264       .  A
C1974      C2031   1.499       .  S
O1975      V1983   1.911       .  S
O1975      C1985   1.267       .  A
O1976      V1983   1.909       .  S
O1976      C1986   1.265       .  A
O1977      V1983   1.896       .  S
O1977      C1987   1.261       .  A
O1978      V1983   1.890       .  S
O1978      C1988   1.262       .  A
O1979      V1984   1.906       .  S
O1979      C1988   1.267       .  A
O1980      V1984   1.903       .  S
O1980      C1987   1.264       .  A
O1981      V1984   1.902       .  S
O1981      C1986   1.263       .  A
O1982      V1984   1.900       .  S
O1982      C1985   1.264       .  A
V1983      V1984   2.086       .  T
C1985      C2048   1.489       .  S
C1988      C2017   1.500       .  S
O1989      V1997   1.899       .  S
O1989      C2447   1.265       .  A
O1990      V1997   1.897       .  S
O1990      C2448   1.263       .  A
O1991      V1997   1.901       .  S
O1991      C2001   1.263       .  A
O1992      V1997   1.895       .  S
O1992      C2002   1.264       .  A
O1993      V1998   1.900       .  S
O1993      C2450   1.266       .  A
O1994      V1998   1.901       .  S
O1994      C2449   1.264       .  A
O1995      V1998   1.899       .  S
O1995      C2000   1.262       .  A
O1996      V1998   1.895       .  S
O1996      C1999   1.265       .  A
V1997      V2446   2.082       .  T
V1998      V2445   2.082   1_554  T
C1999      O2437   1.265   1_554  A
C1999      C2104   1.500       .  S
C2000      O2438   1.263   1_554  A
C2001      O2442   1.264       .  A
C2001      C2338   1.460       .  S
C2002      O2441   1.266       .  A
C2002      C2930   1.495       .  S
O2003      V2011   1.898       .  S
O2003      C2013   1.265       .  A
O2004      V2011   1.899       .  S
O2004      C2014   1.263       .  A
O2005      V2011   1.899       .  S
O2005      C2015   1.263       .  A
O2006      V2011   1.901       .  S
O2006      C2016   1.265       .  A
O2007      V2012   1.894       .  S
O2007      C2016   1.264       .  A
O2008      V2012   1.901       .  S
O2008      C2015   1.263       .  A
O2009      V2012   1.901       .  S
O2009      C2014   1.263       .  A
O2010      V2012   1.899       .  S
O2010      C2013   1.266       .  A
V2011      V2012   2.082       .  T
C2013      C2076   1.498       .  S
C2016      C2916   1.497       .  S
C2017      C2018   1.420       .  A
C2017      C2022   1.419       .  A
C2018      C2019   1.410       .  A
C2018      C2023   1.453       .  S
C2019      C2020   1.418       .  A
C2019      C2026   1.454       .  S
C2020      C2912   1.497   1_545  S
C2020      C2021   1.418       .  A
C2021      C2022   1.414       .  A
C2021      C2024   1.452       .  S
C2022      C2025   1.453       .  S
C2023      N2030   1.158       .  T
C2024      N2925   1.158   1_545  T
C2025      N2027   1.158       .  T
C2026      N2924   1.158   1_545  T
N2028      C2922   1.158       .  T
N2029      C2920   1.158       .  T
C2031      C2032   1.419   1_556  A
C2031      C2484   1.419       .  A
C2032      C2033   1.412       .  A
C2032      C2037   1.453       .  S
C2033      C2482   1.416   1_554  A
C2033      C2040   1.453       .  S
C2034      C2898   1.495   1_545  S
C2034      C2481   1.416       .  A
C2034      C2035   1.418       .  A
C2035      C2036   1.412       .  A
C2035      C2038   1.453   1_545  S
C2036      C2479   1.419       .  A
C2036      C2039   1.452       .  S
C2037      N2044   1.158       .  T
C2038      N2939   1.158       .  T
C2039      N2041   1.158       .  T
C2040      N2938   1.157   1_545  T
N2042      C2936   1.157       .  T
N2043      C2934   1.158       .  T
C2045      C2046   1.414       .  A
C2045      C2050   1.413       .  A
C2046      C2051   1.452       .  S
C2047      C2048   1.412       .  A
C2047      C2054   1.448       .  S
C2048      C2049   1.414       .  A
C2049      C2052   1.452       .  S
C2050      C2053   1.450       .  S
C2051      N2058   1.157       .  T
C2052      N2057   1.157       .  T
C2053      N2055   1.157       .  T
C2054      N2056   1.156       .  T
C2059      C2060   1.414       .  A
C2059      C2512   1.414   1_554  A
C2060      C2065   1.449       .  S
C2061      C2510   1.414       .  A
C2061      C2068   1.452       .  S
C2062      C2509   1.414       .  A
C2062      C2063   1.413       .  A
C2063      C2066   1.449       .  S
C2064      C2507   1.414       .  A
C2064      C2067   1.452       .  S
C2065      N2072   1.157       .  T
C2066      N2071   1.156       .  T
C2067      N2069   1.157       .  T
C2068      N2070   1.157       .  T
C2073      C2074   1.422       .  A
C2073      C2078   1.419       .  A
C2074      C2079   1.453       .  S
C2075      C2076   1.416       .  A
C2075      C2082   1.453       .  S
C2076      C2077   1.418       .  A
C2077      C2080   1.453       .  S
C2078      C2081   1.452       .  S
C2079      N2086   1.157       .  T
C2080      N2085   1.158       .  T
C2081      N2083   1.158       .  T
C2082      N2084   1.158       .  T
C2087      C2088   1.413       .  A
C2087      C2092   1.412       .  A
C2088      C2089   1.413       .  A
C2088      C2093   1.452       .  S
C2089      C2090   1.413       .  A
C2089      C2096   1.449       .  S
C2090      C2828   1.488   1_545  S
C2090      C2091   1.413       .  A
C2091      C2092   1.413       .  A
C2091      C2094   1.450   1_545  S
C2092      C2095   1.449       .  S
C2093      N2100   1.157       .  T
C2094      N2995   1.157       .  T
C2095      N2097   1.156       .  T
C2096      N2994   1.156   1_545  T
N2098      C2992   1.156       .  T
N2099      C2990   1.157       .  T
C2101      C2363   1.502       .  S
C2101      C2102   1.420       .  A
C2101      C2554   1.420   1_554  A
C2102      C2107   1.453       .  S
C2103      C2104   1.419       .  A
C2103      C2110   1.454       .  S
C2104      C2553   1.419   1_554  A
C2105      C2552   1.419       .  A
C2105      C2108   1.453       .  S
C2106      C2549   1.420       .  A
C2106      C2109   1.453       .  S
C2107      N2114   1.158       .  T
C2108      N2113   1.158       .  T
C2109      N2111   1.157       .  T
C2110      N2112   1.157       .  T
C2115      C2394   1.486       .  S
C2115      C2116   1.413       .  A
C2115      C2568   1.411   1_554  A
C2116      C2117   1.415       .  A
C2116      C2121   1.452       .  S
C2117      C2118   1.414       .  A
C2117      C2124   1.449       .  S
C2118      C2814   1.489   1_545  S
C2118      C2567   1.413   1_554  A
C2119      C2566   1.413       .  A
C2119      C2120   1.411       .  A
C2119      C2122   1.450   1_545  S
C2120      C2563   1.411       .  A
C2120      C2123   1.450       .  S
C2121      N2128   1.157       .  T
C2122      N3023   1.157       .  T
C2123      N2125   1.157       .  T
C2124      N3022   1.157   1_545  T
N2126      C3020   1.157       .  T
N2127      C3018   1.157       .  T
C2129      C2130   1.414       .  A
C2129      C2134   1.416       .  A
C2130      C2131   1.413       .  A
C2130      C2135   1.450       .  S
C2131      C2132   1.416       .  A
C2131      C2138   1.451       .  S
C2132      C2133   1.416       .  A
C2133      C2134   1.414       .  A
C2133      C2136   1.452       .  S
C2134      C2137   1.452       .  S
C2135      N2142   1.157       .  T
C2136      N2141   1.157       .  T
C2137      N2139   1.158       .  T
C2138      N2140   1.157       .  T
C2143      C2144   1.410       .  A
C2143      C2148   1.414       .  A
C2144      C2145   1.409       .  A
C2144      C2149   1.449       .  S
C2145      C2146   1.411       .  A
C2145      C2152   1.449       .  S
C2146      C2147   1.413       .  A
C2147      C2148   1.415       .  A
C2147      C2150   1.451       .  S
C2148      C2151   1.451       .  S
C2149      N2156   1.156       .  T
C2150      N2155   1.157       .  T
C2151      N2153   1.157       .  T
C2152      N2154   1.156       .  T
C2157      C2158   1.414       .  A
C2157      C2162   1.412       .  A
C2158      C2159   1.415       .  A
C2158      C2163   1.451       .  S
C2159      C2160   1.414       .  A
C2159      C2166   1.451       .  S
C2160      C2161   1.413       .  A
C2161      C2162   1.411       .  A
C2161      C2164   1.449       .  S
C2162      C2165   1.450       .  S
C2163      N2170   1.157       .  T
C2164      N2169   1.156       .  T
C2165      N2167   1.157       .  T
C2166      N2168   1.157       .  T
C2171      C2172   1.414       .  A
C2171      C2176   1.413       .  A
C2172      C2173   1.415       .  A
C2172      C2177   1.451       .  S
C2173      C2174   1.415       .  A
C2173      C2180   1.451       .  S
C2174      C2175   1.412       .  A
C2175      C2176   1.411       .  A
C2175      C2178   1.449       .  S
C2176      C2179   1.450       .  S
C2177      N2184   1.158       .  T
C2178      N2183   1.156       .  T
C2179      N2181   1.156       .  T
C2180      N2182   1.157       .  T
C2185      C2186   1.416       .  A
C2185      C2190   1.415       .  A
C2186      C2187   1.413       .  A
C2186      C2191   1.452       .  S
C2187      C2188   1.415       .  A
C2187      C2194   1.452       .  S
C2188      C2189   1.416       .  A
C2189      C2190   1.414       .  A
C2189      C2192   1.451       .  S
C2190      C2193   1.451       .  S
C2191      N2198   1.157       .  T
C2192      N2197   1.157       .  T
C2193      N2195   1.157       .  T
C2194      N2196   1.158       .  T
C2199      C2200   1.413       .  A
C2199      C2204   1.411       .  A
C2200      C2201   1.414       .  A
C2200      C2205   1.450       .  S
C2201      C2202   1.413       .  A
C2201      C2208   1.450       .  S
C2202      C2203   1.411       .  A
C2203      C2204   1.410       .  A
C2203      C2206   1.450       .  S
C2204      C2207   1.448       .  S
C2205      N2212   1.157       .  T
C2206      N2211   1.157       .  T
C2207      N2209   1.156       .  T
C2208      N2210   1.157       .  T
C2213      C2214   1.411       .  A
C2213      C2218   1.411       .  A
C2214      C2215   1.412       .  A
C2214      C2219   1.450       .  S
C2215      C2216   1.412       .  A
C2215      C2222   1.449       .  S
C2216      C2217   1.410       .  A
C2217      C2218   1.411       .  A
C2217      C2220   1.450       .  S
C2218      C2221   1.449       .  S
C2219      N2226   1.157       .  T
C2220      N2225   1.157       .  T
C2221      N2223   1.156       .  T
C2222      N2224   1.156       .  T
C2227      C2228   1.418       .  A
C2227      C2232   1.417       .  A
C2228      C2229   1.414       .  A
C2228      C2233   1.452       .  S
C2229      C2230   1.418       .  A
C2229      C2236   1.452       .  S
C2230      C2231   1.417       .  A
C2231      C2232   1.411       .  A
C2231      C2234   1.453       .  S
C2232      C2235   1.453       .  S
C2233      N2240   1.157       .  T
C2234      N2239   1.157       .  T
C2235      N2237   1.157       .  T
C2236      N2238   1.157       .  T
O2241      V2249   1.903   1_556  S
O2241      C2251   1.265       .  A
O2242      C2252   1.265       .  A
O2243      V2249   1.897       .  S
O2244      C2254   1.263       .  A
O2246      V2250   1.902       .  S
O2246      C2253   1.263       .  A
O2247      V2250   1.898       .  S
O2247      C2252   1.265       .  A
O2248      C2251   1.264       .  A
C2251      C2664   1.481       .  S
C2252      C2678   1.498       .  S
C2254      C2448   1.457       .  S
O2255      V2263   1.902       .  S
O2255      C2265   1.263       .  A
O2256      V2263   1.898       .  S
O2256      C2266   1.262       .  A
O2257      V2263   1.898       .  S
O2257      C2267   1.265       .  A
O2258      V2263   1.902       .  S
O2258      C2268   1.264       .  A
O2259      V2264   1.902       .  S
O2259      C2268   1.264       .  A
O2260      V2264   1.899       .  S
O2260      C2267   1.265       .  A
O2261      V2264   1.902       .  S
O2261      C2266   1.263       .  A
O2262      V2264   1.897       .  S
O2262      C2265   1.262       .  A
V2263      V2264   2.088       .  T
C2265      C2378   1.458       .  S
C2266      C2462   1.459       .  S
C2267      C2675   1.498       .  S
C2268      C2661   1.481       .  S
O2269      V2277   1.906       .  S
O2269      C2279   1.266       .  A
O2270      C2280   1.266       .  A
O2271      V2277   1.901       .  S
O2272      C2282   1.264       .  A
O2274      V2278   1.906       .  S
O2274      C2281   1.265       .  A
O2275      V2278   1.902       .  S
O2275      C2280   1.264       .  A
O2276      C2279   1.265       .  A
C2279      C2633   1.494       .  S
C2280      C2647   1.485       .  S
C2282      C2365   1.465       .  S
O2283      V2291   1.903       .  S
O2283      C2293   1.265       .  A
O2284      V2291   1.901       .  S
O2284      C2294   1.265       .  A
O2285      V2291   1.902       .  S
O2285      C2295   1.263       .  A
O2286      V2291   1.904       .  S
O2286      C2296   1.264       .  A
O2287      V2292   1.902       .  S
O2287      C2296   1.263       .  A
O2288      V2292   1.904       .  S
O2288      C2295   1.264       .  A
O2289      V2292   1.902       .  S
O2289      C2294   1.266       .  A
O2290      V2292   1.905       .  S
O2290      C2293   1.265       .  A
V2291      V2292   2.088       .  T
C2293      C2650   1.485       .  S
C2294      C2636   1.493       .  S
C2295      C2407   1.463       .  S
C2296      C2379   1.463       .  S
O2297      V2305   1.903       .  S
O2297      C2307   1.263       .  A
O2299      C2309   1.265       .  A
O2300      V2305   1.901       .  S
O2300      C2310   1.265       .  A
O2301      V2306   1.905       .  S
O2301      C2310   1.265       .  A
O2302      C2309   1.266       .  A
O2303      V2306   1.903       .  S
O2303      C2308   1.263       .  A
V2305      V2306   2.089       .  T
C2308      C2392   1.464       .  S
C2309      C2605   1.488       .  S
C2310      C2619   1.489       .  S
O2311      V2319   1.905       .  S
O2311      C2321   1.265       .  A
O2312      V2319   1.905       .  S
O2312      C2322   1.266       .  A
O2313      V2319   1.905       .  S
O2313      C2323   1.265       .  A
O2314      V2319   1.901       .  S
O2314      C2324   1.263       .  A
O2315      V2320   1.904       .  S
O2315      C2324   1.264       .  A
O2316      V2320   1.905       .  S
O2316      C2323   1.264       .  A
O2317      V2320   1.905       .  S
O2317      C2322   1.265       .  A
O2318      V2320   1.903       .  S
O2318      C2321   1.265       .  A
V2319      V2320   2.088       .  T
C2321      C2622   1.490       .  S
C2322      C2608   1.489       .  S
C2323      C2434   1.466       .  S
C2324      C2406   1.462       .  S
O2325      V2333   1.903       .  S
O2325      C2335   1.264       .  A
O2326      C2336   1.264       .  A
O2327      V2333   1.905       .  S
O2327      C2337   1.265       .  A
O2329      C2338   1.262       .  A
O2330      V2334   1.897       .  S
O2331      V2334   1.906   1_556  S
O2331      C2336   1.267       .  A
O2332      C2335   1.265       .  A
C2335      C2591   1.485       .  S
C2336      C2577   1.494       .  S
C2337      C2421   1.460       .  S
O2339      V2347   1.906       .  S
O2339      C2349   1.265       .  A
O2340      V2347   1.904       .  S
O2340      C2350   1.266       .  A
O2341      V2347   1.901       .  S
O2341      C2351   1.263       .  A
O2342      V2347   1.903       .  S
O2342      C2352   1.264       .  A
O2343      V2348   1.897       .  S
O2343      C2352   1.262       .  A
O2344      V2348   1.899       .  S
O2344      C2351   1.262       .  A
O2345      V2348   1.904       .  S
O2345      C2350   1.266       .  A
O2346      V2348   1.898       .  S
O2346      C2349   1.264       .  A
V2347      V2348   2.088       .  T
C2349      C2594   1.484       .  S
C2350      C2580   1.496       .  S
C2351      C2463   1.458       .  S
C2352      C2435   1.459       .  S
O2353      V2361   1.898       .  S
O2354      V2361   1.901       .  S
O2355      V2361   1.903       .  S
O2355      C2365   1.264       .  A
O2356      V2361   1.909       .  S
O2356      C2366   1.266       .  A
O2357      V2362   1.902       .  S
O2358      V2362   1.905       .  S
O2359      V2362   1.897       .  S
O2359      C2364   1.262   1_556  A
O2360      V2362   1.897       .  S
O2360      C2363   1.265   1_556  A
C2366      C3462   1.489       .  S
O2367      V2375   1.894       .  S
O2367      C2377   1.264       .  A
O2368      V2375   1.893       .  S
O2368      C2378   1.260       .  A
O2369      V2375   1.906       .  S
O2369      C2379   1.265       .  A
O2370      V2375   1.906       .  S
O2370      C2380   1.266       .  A
O2371      V2376   1.904       .  S
O2371      C2380   1.265       .  A
O2372      V2376   1.900       .  S
O2372      C2379   1.263       .  A
O2373      V2376   1.906       .  S
O2373      C2378   1.265       .  A
O2374      V2376   1.905       .  S
O2374      C2377   1.266       .  A
V2375      V2376   2.085       .  T
C2377      C2521   1.503       .  S
C2380      C3434   1.488       .  S
O2381      V2389   1.902       .  S
O2382      V2389   1.903       .  S
O2383      V2389   1.906       .  S
O2383      C2393   1.264       .  A
O2384      V2389   1.904       .  S
O2384      C2394   1.266   1_556  A
O2385      V2390   1.903       .  S
O2386      V2390   1.899       .  S
O2387      V2390   1.905       .  S
O2387      C2392   1.265       .  A
O2388      V2390   1.906       .  S
O2388      C2391   1.266       .  A
C2391      C2507   1.490       .  S
O2395      V2403   1.907       .  S
O2395      C2405   1.266       .  A
O2396      V2403   1.906       .  S
O2396      C2406   1.265       .  A
O2397      V2403   1.900       .  S
O2397      C2407   1.262       .  A
O2398      V2403   1.902       .  S
O2398      C2408   1.264       .  A
O2399      V2404   1.905       .  S
O2399      C2408   1.266       .  A
O2400      V2404   1.906       .  S
O2400      C2407   1.265       .  A
O2401      V2404   1.899       .  S
O2401      C2406   1.262       .  A
O2402      V2404   1.902       .  S
O2402      C2405   1.264       .  A
V2403      V2404   2.087       .  T
C2405      C2493   1.488       .  S
C2408      C2535   1.487       .  S
O2409      V2417   1.903       .  S
O2410      V2417   1.904       .  S
O2411      V2417   1.901       .  S
O2411      C2421   1.263       .  A
O2412      V2417   1.899       .  S
O2412      C2422   1.265       .  A
O2413      V2418   1.899       .  S
O2414      V2418   1.901       .  S
O2415      V2418   1.904       .  S
O2415      C2420   1.264   1_556  A
O2416      V2418   1.905       .  S
O2416      C2419   1.266   1_556  A
C2419      C2510   1.489       .  S
C2422      C2479   1.499       .  S
O2423      V2431   1.911       .  S
O2423      C2433   1.267       .  A
O2424      V2431   1.909       .  S
O2424      C2434   1.265       .  A
O2425      V2431   1.896       .  S
O2425      C2435   1.261       .  A
O2426      V2431   1.890       .  S
O2426      C2436   1.262       .  A
O2427      V2432   1.906       .  S
O2427      C2436   1.267       .  A
O2428      V2432   1.903       .  S
O2428      C2435   1.264       .  A
O2429      V2432   1.902       .  S
O2429      C2434   1.263       .  A
O2430      V2432   1.900       .  S
O2430      C2433   1.264       .  A
V2431      V2432   2.086       .  T
C2433      C2496   1.489       .  S
C2436      C2465   1.500       .  S
O2437      V2445   1.899       .  S
O2438      V2445   1.897       .  S
O2439      V2445   1.901       .  S
O2439      C2449   1.263   1_556  A
O2440      V2445   1.895       .  S
O2440      C2450   1.264   1_556  A
O2441      V2446   1.900       .  S
O2442      V2446   1.901       .  S
O2443      V2446   1.899       .  S
O2443      C2448   1.262       .  A
O2444      V2446   1.895       .  S
O2444      C2447   1.265       .  A
C2447      C2552   1.500       .  S
C2450      C3378   1.495   1_554  S
O2451      V2459   1.898       .  S
O2451      C2461   1.265       .  A
O2452      V2459   1.899       .  S
O2452      C2462   1.263       .  A
O2453      V2459   1.899       .  S
O2453      C2463   1.263       .  A
O2454      V2459   1.901       .  S
O2454      C2464   1.265       .  A
O2455      V2460   1.894       .  S
O2455      C2464   1.264       .  A
O2456      V2460   1.901       .  S
O2456      C2463   1.263       .  A
O2457      V2460   1.901       .  S
O2457      C2462   1.263       .  A
O2458      V2460   1.899       .  S
O2458      C2461   1.266       .  A
V2459      V2460   2.082       .  T
C2461      C2524   1.498       .  S
C2464      C3364   1.497       .  S
C2465      C2466   1.420       .  A
C2465      C2470   1.419       .  A
C2466      C2467   1.410       .  A
C2466      C2471   1.453       .  S
C2467      C2468   1.418       .  A
C2467      C2474   1.454       .  S
C2468      C3360   1.497   1_545  S
C2468      C2469   1.418       .  A
C2469      C2470   1.414       .  A
C2469      C2472   1.452       .  S
C2470      C2473   1.453       .  S
C2471      N2478   1.158       .  T
C2472      N3373   1.158   1_545  T
C2473      N2475   1.158       .  T
C2474      N3372   1.158   1_545  T
N2476      C3370   1.158       .  T
N2477      C3368   1.158       .  T
C2479      C2480   1.419       .  A
C2480      C2481   1.412       .  A
C2480      C2485   1.453       .  S
C2481      C2488   1.453       .  S
C2482      C3346   1.495   1_545  S
C2482      C2483   1.418       .  A
C2483      C2484   1.412       .  A
C2483      C2486   1.453   1_545  S
C2484      C2487   1.452       .  S
C2485      N2492   1.158       .  T
C2486      N3387   1.158       .  T
C2487      N2489   1.158       .  T
C2488      N3386   1.157   1_545  T
N2490      C3384   1.157       .  T
N2491      C3382   1.158       .  T
C2493      C2494   1.414       .  A
C2493      C2498   1.413       .  A
C2494      C2499   1.452       .  S
C2495      C2496   1.412       .  A
C2495      C2502   1.448       .  S
C2496      C2497   1.414       .  A
C2497      C2500   1.452       .  S
C2498      C2501   1.450       .  S
C2499      N2506   1.157       .  T
C2500      N2505   1.157       .  T
C2501      N2503   1.157       .  T
C2502      N2504   1.156       .  T
C2507      C2508   1.414       .  A
C2508      C2513   1.449       .  S
C2509      C2516   1.452       .  S
C2510      C2511   1.413   1_554  A
C2511      C2514   1.449       .  S
C2512      C2515   1.452       .  S
C2513      N2520   1.157       .  T
C2514      N2519   1.156       .  T
C2515      N2517   1.157       .  T
C2516      N2518   1.157       .  T
C2521      C2522   1.422       .  A
C2521      C2526   1.419       .  A
C2522      C2527   1.453       .  S
C2523      C2524   1.416       .  A
C2523      C2530   1.453       .  S
C2524      C2525   1.418       .  A
C2525      C2528   1.453       .  S
C2526      C2529   1.452       .  S
C2527      N2534   1.157       .  T
C2528      N2533   1.158       .  T
C2529      N2531   1.158       .  T
C2530      N2532   1.158       .  T
C2535      C2536   1.413       .  A
C2535      C2540   1.412       .  A
C2536      C2537   1.413       .  A
C2536      C2541   1.452       .  S
C2537      C2538   1.413       .  A
C2537      C2544   1.449       .  S
C2538      C3276   1.488   1_545  S
C2538      C2539   1.413       .  A
C2539      C2540   1.413       .  A
C2539      C2542   1.450   1_545  S
C2540      C2543   1.449       .  S
C2541      N2548   1.157       .  T
C2542      N3443   1.157       .  T
C2543      N2545   1.156       .  T
C2544      N3442   1.156   1_545  T
N2546      C3440   1.156       .  T
N2547      C3438   1.157       .  T
C2549      C2550   1.420       .  A
C2550      C2555   1.453       .  S
C2551      C2552   1.419       .  A
C2551      C2558   1.454       .  S
C2553      C2556   1.453       .  S
C2554      C2557   1.453       .  S
C2555      N2562   1.158       .  T
C2556      N2561   1.158       .  T
C2557      N2559   1.157       .  T
C2558      N2560   1.157       .  T
C2563      C2564   1.413       .  A
C2564      C2565   1.415       .  A
C2564      C2569   1.452       .  S
C2565      C2566   1.414       .  A
C2565      C2572   1.449       .  S
C2566      C3262   1.489   1_545  S
C2567      C2568   1.411       .  A
C2567      C2570   1.450   1_545  S
C2568      C2571   1.450       .  S
C2569      N2576   1.157       .  T
C2570      N3471   1.157       .  T
C2571      N2573   1.157       .  T
C2572      N3470   1.157   1_545  T
N2574      C3468   1.157       .  T
N2575      C3466   1.157       .  T
C2577      C2578   1.414       .  A
C2577      C2582   1.416       .  A
C2578      C2579   1.413       .  A
C2578      C2583   1.450       .  S
C2579      C2580   1.416       .  A
C2579      C2586   1.451       .  S
C2580      C2581   1.416       .  A
C2581      C2582   1.414       .  A
C2581      C2584   1.452       .  S
C2582      C2585   1.452       .  S
C2583      N2590   1.157       .  T
C2584      N2589   1.157       .  T
C2585      N2587   1.158       .  T
C2586      N2588   1.157       .  T
C2591      C2592   1.410       .  A
C2591      C2596   1.414       .  A
C2592      C2593   1.409       .  A
C2592      C2597   1.449       .  S
C2593      C2594   1.411       .  A
C2593      C2600   1.449       .  S
C2594      C2595   1.413       .  A
C2595      C2596   1.415       .  A
C2595      C2598   1.451       .  S
C2596      C2599   1.451       .  S
C2597      N2604   1.156       .  T
C2598      N2603   1.157       .  T
C2599      N2601   1.157       .  T
C2600      N2602   1.156       .  T
C2605      C2606   1.414       .  A
C2605      C2610   1.412       .  A
C2606      C2607   1.415       .  A
C2606      C2611   1.451       .  S
C2607      C2608   1.414       .  A
C2607      C2614   1.451       .  S
C2608      C2609   1.413       .  A
C2609      C2610   1.411       .  A
C2609      C2612   1.449       .  S
C2610      C2613   1.450       .  S
C2611      N2618   1.157       .  T
C2612      N2617   1.156       .  T
C2613      N2615   1.157       .  T
C2614      N2616   1.157       .  T
C2619      C2620   1.414       .  A
C2619      C2624   1.413       .  A
C2620      C2621   1.415       .  A
C2620      C2625   1.451       .  S
C2621      C2622   1.415       .  A
C2621      C2628   1.451       .  S
C2622      C2623   1.412       .  A
C2623      C2624   1.411       .  A
C2623      C2626   1.449       .  S
C2624      C2627   1.450       .  S
C2625      N2632   1.158       .  T
C2626      N2631   1.156       .  T
C2627      N2629   1.156       .  T
C2628      N2630   1.157       .  T
C2633      C2634   1.416       .  A
C2633      C2638   1.415       .  A
C2634      C2635   1.413       .  A
C2634      C2639   1.452       .  S
C2635      C2636   1.415       .  A
C2635      C2642   1.452       .  S
C2636      C2637   1.416       .  A
C2637      C2638   1.414       .  A
C2637      C2640   1.451       .  S
C2638      C2641   1.451       .  S
C2639      N2646   1.157       .  T
C2640      N2645   1.157       .  T
C2641      N2643   1.157       .  T
C2642      N2644   1.158       .  T
C2647      C2648   1.413       .  A
C2647      C2652   1.411       .  A
C2648      C2649   1.414       .  A
C2648      C2653   1.450       .  S
C2649      C2650   1.413       .  A
C2649      C2656   1.450       .  S
C2650      C2651   1.411       .  A
C2651      C2652   1.410       .  A
C2651      C2654   1.450       .  S
C2652      C2655   1.448       .  S
C2653      N2660   1.157       .  T
C2654      N2659   1.157       .  T
C2655      N2657   1.156       .  T
C2656      N2658   1.157       .  T
C2661      C2662   1.411       .  A
C2661      C2666   1.411       .  A
C2662      C2663   1.412       .  A
C2662      C2667   1.450       .  S
C2663      C2664   1.412       .  A
C2663      C2670   1.449       .  S
C2664      C2665   1.410       .  A
C2665      C2666   1.411       .  A
C2665      C2668   1.450       .  S
C2666      C2669   1.449       .  S
C2667      N2674   1.157       .  T
C2668      N2673   1.157       .  T
C2669      N2671   1.156       .  T
C2670      N2672   1.156       .  T
C2675      C2676   1.418       .  A
C2675      C2680   1.417       .  A
C2676      C2677   1.414       .  A
C2676      C2681   1.452       .  S
C2677      C2678   1.418       .  A
C2677      C2684   1.452       .  S
C2678      C2679   1.417       .  A
C2679      C2680   1.411       .  A
C2679      C2682   1.453       .  S
C2680      C2683   1.453       .  S
C2681      N2688   1.157       .  T
C2682      N2687   1.157       .  T
C2683      N2685   1.157       .  T
C2684      N2686   1.157       .  T
O2689      V2697   1.903       .  S
O2689      C2699   1.265       .  A
O2690      V3145   1.902       .  S
O2690      C2700   1.265       .  A
O2691      V2697   1.897       .  S
O2691      C3149   1.262       .  A
O2692      V3145   1.900       .  S
O2692      C2702   1.263       .  A
O2693      V3146   1.897       .  S
O2693      C3150   1.262       .  A
O2694      V2698   1.902       .  S
O2694      C2701   1.263       .  A
O2695      V2698   1.898       .  S
O2695      C2700   1.265       .  A
O2696      V3146   1.901       .  S
O2696      C2699   1.264       .  A
V2697      O3138   1.902       .  S
V2697      O3140   1.900       .  S
V2697      V3146   2.088       .  T
V2698      O3141   1.897       .  S
V2698      O3144   1.901   1_554  S
V2698      V3145   2.088       .  T
C2699      C3112   1.481       .  S
C2700      C3126   1.498       .  S
C2701      O3139   1.262       .  A
C2701      C3260   1.458       .  S
C2702      O3141   1.262       .  A
C2702      C2896   1.457       .  S
O2703      V2711   1.902       .  S
O2703      C2713   1.263       .  A
O2704      V2711   1.898       .  S
O2704      C2714   1.262       .  A
O2705      V2711   1.898       .  S
O2705      C2715   1.265       .  A
O2706      V2711   1.902       .  S
O2706      C2716   1.264       .  A
O2707      V2712   1.902       .  S
O2707      C2716   1.264       .  A
O2708      V2712   1.900       .  S
O2708      C2715   1.265       .  A
O2709      V2712   1.902       .  S
O2709      C2714   1.263       .  A
O2710      V2712   1.897       .  S
O2710      C2713   1.262       .  A
V2711      V2712   2.088       .  T
C2713      C2826   1.458       .  S
C2714      C2910   1.458       .  S
C2715      C3123   1.498       .  S
C2716      C3109   1.481       .  S
O2717      V2725   1.906       .  S
O2717      C2727   1.266       .  A
O2718      V3173   1.906   1_554  S
O2718      C2728   1.266       .  A
O2719      V2725   1.901       .  S
O2719      C3177   1.263       .  A
O2720      V3173   1.903       .  S
O2720      C2730   1.264       .  A
O2721      V3174   1.905       .  S
O2721      C3178   1.264       .  A
O2722      V2726   1.906       .  S
O2722      C2729   1.265       .  A
O2723      V2726   1.902   1_554  S
O2723      C2728   1.264       .  A
O2724      V3174   1.900       .  S
O2724      C2727   1.265       .  A
V2725      O3166   1.906       .  S
V2725      O3168   1.903       .  S
V2725      V3174   2.087       .  T
V2726      O3169   1.905       .  S
V2726      O3172   1.900       .  S
V2726      V3173   2.087       .  T
C2727      C3081   1.494       .  S
C2728      C3095   1.485       .  S
C2729      O3167   1.263       .  A
C2729      C3289   1.463       .  S
C2730      O3169   1.264       .  A
C2730      C2813   1.465       .  S
O2731      V2739   1.903       .  S
O2731      C2741   1.265       .  A
O2732      V2739   1.901       .  S
O2732      C2742   1.265       .  A
O2733      V2739   1.903       .  S
O2733      C2743   1.263       .  A
O2734      V2739   1.904       .  S
O2734      C2744   1.264       .  A
O2735      V2740   1.902       .  S
O2735      C2744   1.263       .  A
O2736      V2740   1.904       .  S
O2736      C2743   1.264       .  A
O2737      V2740   1.902       .  S
O2737      C2742   1.266       .  A
O2738      V2740   1.905       .  S
O2738      C2741   1.265       .  A
V2739      V2740   2.088       .  T
C2741      C3098   1.485       .  S
C2742      C3084   1.493       .  S
C2743      C2855   1.464       .  S
C2744      C2827   1.463       .  S
O2745      V2753   1.903   1_554  S
O2745      C2755   1.263   1_554  A
O2746      V3201   1.904       .  S
O2746      C3204   1.264       .  A
O2747      V3201   1.904       .  S
O2747      C2757   1.265       .  A
O2748      V2753   1.900   1_554  S
O2748      C2758   1.265       .  A
O2749      V2754   1.905   1_554  S
O2749      C2758   1.265       .  A
O2750      V3202   1.905       .  S
O2750      C2757   1.266       .  A
O2751      V2754   1.903       .  S
O2751      C2756   1.263       .  A
O2752      V3202   1.905       .  S
O2752      C3203   1.265       .  A
V2753      O3194   1.904       .  S
V2753      O3195   1.904       .  S
V2753      V2754   2.089       .  T
V2754      O3198   1.905       .  S
V2754      O3200   1.905       .  S
C2755      O3200   1.265       .  A
C2755      C3316   1.465   1_556  S
C2756      O3194   1.264       .  A
C2756      C2840   1.464       .  S
C2757      C3053   1.488       .  S
C2758      C3067   1.490       .  S
O2759      V2767   1.905       .  S
O2759      C2769   1.265       .  A
O2760      V2767   1.905       .  S
O2760      C2770   1.266       .  A
O2761      V2767   1.905       .  S
O2761      C2771   1.265       .  A
O2762      V2767   1.901       .  S
O2762      C2772   1.263       .  A
O2763      V2768   1.904       .  S
O2763      C2772   1.264       .  A
O2764      V2768   1.905       .  S
O2764      C2771   1.264       .  A
O2765      V2768   1.905       .  S
O2765      C2770   1.265       .  A
O2766      V2768   1.902       .  S
O2766      C2769   1.265       .  A
V2767      V2768   2.088       .  T
C2769      C3070   1.490       .  S
C2770      C3056   1.489       .  S
C2771      C2882   1.466       .  S
C2772      C2854   1.462       .  S
O2773      V2781   1.903       .  S
O2773      C2783   1.264       .  A
O2774      V3229   1.900       .  S
O2774      C2784   1.265       .  A
O2775      V2781   1.905       .  S
O2775      C2785   1.265       .  A
O2776      V3229   1.903       .  S
O2776      C3234   1.264       .  A
O2777      V3230   1.899       .  S
O2777      C2786   1.262       .  A
O2778      V2782   1.897       .  S
O2778      C3233   1.262       .  A
O2779      V2782   1.906       .  S
O2779      C2784   1.267       .  A
O2780      V3230   1.903       .  S
O2780      C2783   1.265       .  A
V2781      O3222   1.900   1_554  S
V2781      O3224   1.903       .  S
V2781      V3230   2.088       .  T
V2782      O3225   1.899       .  S
V2782      O3228   1.903       .  S
V2782      V3229   2.088       .  T
C2783      C3039   1.484       .  S
C2784      C3025   1.495       .  S
C2785      O3226   1.262       .  A
C2785      C2869   1.460       .  S
C2786      O3224   1.264       .  A
C2786      C3345   1.460       .  S
O2787      V2795   1.906       .  S
O2787      C2797   1.265       .  A
O2788      V2795   1.905       .  S
O2788      C2798   1.266       .  A
O2789      V2795   1.901       .  S
O2789      C2799   1.263       .  A
O2790      V2795   1.904       .  S
O2790      C2800   1.264       .  A
O2791      V2796   1.897       .  S
O2791      C2800   1.262       .  A
O2792      V2796   1.899       .  S
O2792      C2799   1.263       .  A
O2793      V2796   1.903       .  S
O2793      C2798   1.266       .  A
O2794      V2796   1.898       .  S
O2794      C2797   1.264       .  A
V2795      V2796   2.088       .  T
C2797      C3042   1.484       .  S
C2798      C3028   1.496       .  S
C2799      C2911   1.459       .  S
C2800      C2883   1.459       .  S
O2801      V2809   1.898       .  S
O2801      C3259   1.264       .  A
O2802      V2809   1.902       .  S
O2802      C3260   1.264       .  A
O2803      V2809   1.903       .  S
O2803      C2813   1.264   1_554  A
O2804      V2809   1.909       .  S
O2804      C2814   1.266       .  A
O2805      V2810   1.902       .  S
O2805      C3262   1.265       .  A
O2806      V2810   1.905       .  S
O2806      C3261   1.264       .  A
O2807      V2810   1.897       .  S
O2807      C2812   1.262       .  A
O2808      V2810   1.897       .  S
O2808      C2811   1.265       .  A
V2809      V3258   2.085   1_554  T
V2810      V3257   2.085       .  T
C2811      O3249   1.264       .  A
C2811      C3445   1.502       .  S
C2812      O3250   1.264       .  A
C2812      C3149   1.458       .  S
C2813      O3254   1.264       .  A
C2814      O3253   1.265   1_554  A
O2815      V2823   1.894       .  S
O2815      C2825   1.264       .  A
O2816      V2823   1.893       .  S
O2816      C2826   1.261       .  A
O2817      V2823   1.906       .  S
O2817      C2827   1.265       .  A
O2818      V2823   1.906       .  S
O2818      C2828   1.266       .  A
O2819      V2824   1.904       .  S
O2819      C2828   1.265       .  A
O2820      V2824   1.900       .  S
O2820      C2827   1.263       .  A
O2821      V2824   1.906       .  S
O2821      C2826   1.265       .  A
O2822      V2824   1.905       .  S
O2822      C2825   1.266       .  A
V2823      V2824   2.084       .  T
C2825      C2969   1.503       .  S
O2829      V2837   1.901       .  S
O2829      C3287   1.265       .  A
O2830      V2837   1.902       .  S
O2830      C3288   1.263       .  A
O2831      V2837   1.906       .  S
O2831      C2841   1.264       .  A
O2832      V2837   1.904       .  S
O2832      C2842   1.266       .  A
O2833      V2838   1.903       .  S
O2833      C3290   1.264       .  A
O2834      V2838   1.899       .  S
O2834      C3289   1.262   1_554  A
O2835      V2838   1.905       .  S
O2835      C2840   1.265   1_554  A
O2836      V2838   1.907       .  S
O2836      C2839   1.266       .  A
V2837      V3286   2.087       .  T
V2838      V3285   2.087   1_554  T
C2839      O3277   1.265   1_554  A
C2839      C2955   1.491       .  S
C2840      O3278   1.263       .  A
C2841      O3282   1.262       .  A
C2841      C3177   1.463       .  S
C2842      O3281   1.264       .  A
C2842      C3459   1.486       .  S
O2843      V2851   1.906       .  S
O2843      C2853   1.266       .  A
O2844      V2851   1.906       .  S
O2844      C2854   1.265       .  A
O2845      V2851   1.900       .  S
O2845      C2855   1.262       .  A
O2846      V2851   1.902       .  S
O2846      C2856   1.264       .  A
O2847      V2852   1.906       .  S
O2847      C2856   1.266       .  A
O2848      V2852   1.906       .  S
O2848      C2855   1.265       .  A
O2849      V2852   1.900       .  S
O2849      C2854   1.262       .  A
O2850      V2852   1.902       .  S
O2850      C2853   1.264       .  A
V2851      V2852   2.087       .  T
C2853      C2941   1.488       .  S
C2856      C2983   1.487       .  S
O2857      V2865   1.903       .  S
O2857      C3315   1.265       .  A
O2858      V2865   1.904       .  S
O2858      C3316   1.264       .  A
O2859      V2865   1.901       .  S
O2859      C2869   1.263       .  A
O2860      V2865   1.899       .  S
O2860      C2870   1.265   1_554  A
O2861      V2866   1.898       .  S
O2861      C3318   1.264       .  A
O2862      V2866   1.900       .  S
O2862      C3317   1.263       .  A
O2863      V2866   1.905       .  S
O2863      C2868   1.264       .  A
O2864      V2866   1.906       .  S
O2864      C2867   1.266       .  A
V2865      V3314   2.085   1_554  T
V2866      V3313   2.085       .  T
C2867      O3305   1.265       .  A
C2867      C2958   1.489       .  S
C2868      O3306   1.264       .  A
C2868      C3203   1.465       .  S
C2869      O3310   1.263   1_554  A
C2870      O3309   1.264       .  A
C2870      C2927   1.499       .  S
O2871      V2879   1.911       .  S
O2871      C2881   1.267       .  A
O2872      V2879   1.908       .  S
O2872      C2882   1.265       .  A
O2873      V2879   1.896       .  S
O2873      C2883   1.261       .  A
O2874      V2879   1.890       .  S
O2874      C2884   1.262       .  A
O2875      V2880   1.906       .  S
O2875      C2884   1.267       .  A
O2876      V2880   1.903       .  S
O2876      C2883   1.264       .  A
O2877      V2880   1.902       .  S
O2877      C2882   1.263       .  A
O2878      V2880   1.900       .  S
O2878      C2881   1.264       .  A
V2879      V2880   2.086       .  T
C2881      C2944   1.489       .  S
C2884      C2913   1.500       .  S
O2885      V2893   1.899       .  S
O2885      C3343   1.265       .  A
O2886      V2893   1.897       .  S
O2886      C3344   1.263       .  A
O2887      V2893   1.901       .  S
O2887      C2897   1.263       .  A
O2888      V2893   1.895       .  S
O2888      C2898   1.264       .  A
O2889      V2894   1.900       .  S
O2889      C3346   1.266   1_554  A
O2890      V2894   1.901       .  S
O2890      C3345   1.264       .  A
O2891      V2894   1.899       .  S
O2891      C2896   1.262       .  A
O2892      V2894   1.895       .  S
O2892      C2895   1.265       .  A
V2893      V3342   2.082       .  T
V2894      V3341   2.082   1_554  T
C2895      O3333   1.265   1_554  A
C2895      C3000   1.500       .  S
C2896      O3334   1.263   1_554  A
C2897      O3338   1.264       .  A
C2897      C3234   1.460       .  S
C2898      O3337   1.266       .  A
O2899      V2907   1.899       .  S
O2899      C2909   1.265       .  A
O2900      V2907   1.899       .  S
O2900      C2910   1.263       .  A
O2901      V2907   1.900       .  S
O2901      C2911   1.264       .  A
O2902      V2907   1.901       .  S
O2902      C2912   1.265       .  A
O2903      V2908   1.894       .  S
O2903      C2912   1.264       .  A
O2904      V2908   1.901       .  S
O2904      C2911   1.263       .  A
O2905      V2908   1.900       .  S
O2905      C2910   1.263       .  A
O2906      V2908   1.899       .  S
O2906      C2909   1.265       .  A
V2907      V2908   2.082       .  T
C2909      C2972   1.498       .  S
C2913      C2914   1.420       .  A
C2913      C2918   1.419       .  A
C2914      C2915   1.410       .  A
C2914      C2919   1.453       .  S
C2915      C2916   1.418       .  A
C2915      C2922   1.454       .  S
C2916      C2917   1.418       .  A
C2917      C2918   1.414       .  A
C2917      C2920   1.452       .  S
C2918      C2921   1.453       .  S
C2919      N2926   1.158       .  T
C2921      N2923   1.158       .  T
C2927      C2928   1.419   1_556  A
C2927      C3380   1.419       .  A
C2928      C2929   1.412       .  A
C2928      C2933   1.453       .  S
C2929      C3378   1.416   1_554  A
C2929      C2936   1.453       .  S
C2930      C3377   1.416       .  A
C2930      C2931   1.418       .  A
C2931      C2932   1.412       .  A
C2931      C2934   1.453       .  S
C2932      C3375   1.419       .  A
C2932      C2935   1.452       .  S
C2933      N2940   1.158       .  T
C2935      N2937   1.158       .  T
C2941      C2942   1.414       .  A
C2941      C2946   1.413       .  A
C2942      C2947   1.452       .  S
C2943      C2944   1.412       .  A
C2943      C2950   1.448       .  S
C2944      C2945   1.414       .  A
C2945      C2948   1.452       .  S
C2946      C2949   1.450       .  S
C2947      N2954   1.157       .  T
C2948      N2953   1.157       .  T
C2949      N2951   1.157       .  T
C2950      N2952   1.156       .  T
C2955      C2956   1.414       .  A
C2955      C3408   1.415   1_554  A
C2956      C2961   1.449       .  S
C2957      C3406   1.414       .  A
C2957      C2964   1.452       .  S
C2958      C3405   1.414       .  A
C2958      C2959   1.412       .  A
C2959      C2962   1.449       .  S
C2960      C3403   1.415       .  A
C2960      C2963   1.452       .  S
C2961      N2968   1.157       .  T
C2962      N2967   1.156       .  T
C2963      N2965   1.157       .  T
C2964      N2966   1.157       .  T
C2969      C2970   1.422       .  A
C2969      C2974   1.420       .  A
C2970      C2975   1.453       .  S
C2971      C2972   1.416       .  A
C2971      C2978   1.453       .  S
C2972      C2973   1.418       .  A
C2973      C2976   1.453       .  S
C2974      C2977   1.452       .  S
C2975      N2982   1.157       .  T
C2976      N2981   1.158       .  T
C2977      N2979   1.158       .  T
C2978      N2980   1.158       .  T
C2983      C2984   1.413       .  A
C2983      C2988   1.412       .  A
C2984      C2985   1.413       .  A
C2984      C2989   1.452       .  S
C2985      C2986   1.413       .  A
C2985      C2992   1.449       .  S
C2986      C2987   1.413       .  A
C2987      C2988   1.413       .  A
C2987      C2990   1.450       .  S
C2988      C2991   1.449       .  S
C2989      N2996   1.157       .  T
C2991      N2993   1.156       .  T
C2997      C3259   1.502       .  S
C2997      C2998   1.420       .  A
C2997      C3450   1.420   1_554  A
C2998      C3003   1.453       .  S
C2999      C3000   1.419       .  A
C2999      C3006   1.454       .  S
C3000      C3449   1.419   1_554  A
C3001      C3448   1.419       .  A
C3001      C3004   1.453       .  S
C3002      C3445   1.420       .  A
C3002      C3005   1.454       .  S
C3003      N3010   1.158       .  T
C3004      N3009   1.158       .  T
C3005      N3007   1.157       .  T
C3006      N3008   1.157       .  T
C3011      C3290   1.486       .  S
C3011      C3012   1.413       .  A
C3011      C3464   1.411   1_554  A
C3012      C3013   1.415       .  A
C3012      C3017   1.452       .  S
C3013      C3014   1.414       .  A
C3013      C3020   1.449       .  S
C3014      C3463   1.413   1_554  A
C3015      C3462   1.413       .  A
C3015      C3016   1.411       .  A
C3015      C3018   1.450       .  S
C3016      C3459   1.411       .  A
C3016      C3019   1.450       .  S
C3017      N3024   1.157       .  T
C3019      N3021   1.157       .  T
C3025      C3026   1.414       .  A
C3025      C3030   1.416       .  A
C3026      C3027   1.413       .  A
C3026      C3031   1.450       .  S
C3027      C3028   1.416       .  A
C3027      C3034   1.451       .  S
C3028      C3029   1.416       .  A
C3029      C3030   1.414       .  A
C3029      C3032   1.452       .  S
C3030      C3033   1.452       .  S
C3031      N3038   1.157       .  T
C3032      N3037   1.157       .  T
C3033      N3035   1.158       .  T
C3034      N3036   1.157       .  T
C3039      C3040   1.410       .  A
C3039      C3044   1.414       .  A
C3040      C3041   1.409       .  A
C3040      C3045   1.449       .  S
C3041      C3042   1.411       .  A
C3041      C3048   1.449       .  S
C3042      C3043   1.413       .  A
C3043      C3044   1.415       .  A
C3043      C3046   1.451       .  S
C3044      C3047   1.451       .  S
C3045      N3052   1.156       .  T
C3046      N3051   1.157       .  T
C3047      N3049   1.157       .  T
C3048      N3050   1.156       .  T
C3053      C3054   1.414       .  A
C3053      C3058   1.412       .  A
C3054      C3055   1.415       .  A
C3054      C3059   1.451       .  S
C3055      C3056   1.414       .  A
C3055      C3062   1.451       .  S
C3056      C3057   1.413       .  A
C3057      C3058   1.411       .  A
C3057      C3060   1.449       .  S
C3058      C3061   1.450       .  S
C3059      N3066   1.157       .  T
C3060      N3065   1.156       .  T
C3061      N3063   1.157       .  T
C3062      N3064   1.157       .  T
C3067      C3068   1.414       .  A
C3067      C3072   1.413       .  A
C3068      C3069   1.415       .  A
C3068      C3073   1.451       .  S
C3069      C3070   1.415       .  A
C3069      C3076   1.451       .  S
C3070      C3071   1.412       .  A
C3071      C3072   1.411       .  A
C3071      C3074   1.449       .  S
C3072      C3075   1.450       .  S
C3073      N3080   1.158       .  T
C3074      N3079   1.156       .  T
C3075      N3077   1.156       .  T
C3076      N3078   1.157       .  T
C3081      C3082   1.416       .  A
C3081      C3086   1.415       .  A
C3082      C3083   1.413       .  A
C3082      C3087   1.452       .  S
C3083      C3084   1.415       .  A
C3083      C3090   1.452       .  S
C3084      C3085   1.416       .  A
C3085      C3086   1.414       .  A
C3085      C3088   1.451       .  S
C3086      C3089   1.451       .  S
C3087      N3094   1.157       .  T
C3088      N3093   1.157       .  T
C3089      N3091   1.157       .  T
C3090      N3092   1.158       .  T
C3095      C3096   1.413       .  A
C3095      C3100   1.411       .  A
C3096      C3097   1.414       .  A
C3096      C3101   1.450       .  S
C3097      C3098   1.413       .  A
C3097      C3104   1.450       .  S
C3098      C3099   1.411       .  A
C3099      C3100   1.410       .  A
C3099      C3102   1.450       .  S
C3100      C3103   1.448       .  S
C3101      N3108   1.157       .  T
C3102      N3107   1.157       .  T
C3103      N3105   1.156       .  T
C3104      N3106   1.157       .  T
C3109      C3110   1.411       .  A
C3109      C3114   1.411       .  A
C3110      C3111   1.412       .  A
C3110      C3115   1.450       .  S
C3111      C3112   1.412       .  A
C3111      C3118   1.449       .  S
C3112      C3113   1.410       .  A
C3113      C3114   1.410       .  A
C3113      C3116   1.450       .  S
C3114      C3117   1.449       .  S
C3115      N3122   1.157       .  T
C3116      N3121   1.157       .  T
C3117      N3119   1.156       .  T
C3118      N3120   1.156       .  T
C3123      C3124   1.418       .  A
C3123      C3128   1.418       .  A
C3124      C3125   1.414       .  A
C3124      C3129   1.452       .  S
C3125      C3126   1.418       .  A
C3125      C3132   1.452       .  S
C3126      C3127   1.418       .  A
C3127      C3128   1.411       .  A
C3127      C3130   1.453       .  S
C3128      C3131   1.453       .  S
C3129      N3136   1.157       .  T
C3130      N3135   1.157       .  T
C3131      N3133   1.157       .  T
C3132      N3134   1.157       .  T
O3137      V3145   1.903   1_556  S
O3137      C3147   1.265       .  A
O3138      C3148   1.265       .  A
O3139      V3145   1.897       .  S
O3140      C3150   1.263       .  A
O3142      V3146   1.902       .  S
O3142      C3149   1.263       .  A
O3143      V3146   1.898       .  S
O3143      C3148   1.265       .  A
O3144      C3147   1.264       .  A
C3147      C3560   1.481       .  S
C3148      C3574   1.498       .  S
C3150      C3344   1.457       .  S
O3151      V3159   1.902       .  S
O3151      C3161   1.263       .  A
O3152      V3159   1.898       .  S
O3152      C3162   1.262       .  A
O3153      V3159   1.898       .  S
O3153      C3163   1.265       .  A
O3154      V3159   1.902       .  S
O3154      C3164   1.264       .  A
O3155      V3160   1.902       .  S
O3155      C3164   1.264       .  A
O3156      V3160   1.900       .  S
O3156      C3163   1.265       .  A
O3157      V3160   1.902       .  S
O3157      C3162   1.263       .  A
O3158      V3160   1.897       .  S
O3158      C3161   1.262       .  A
V3159      V3160   2.088       .  T
C3161      C3274   1.458       .  S
C3162      C3358   1.458       .  S
C3163      C3571   1.498       .  S
C3164      C3557   1.481       .  S
O3165      V3173   1.906       .  S
O3165      C3175   1.266       .  A
O3166      C3176   1.266       .  A
O3167      V3173   1.901       .  S
O3168      C3178   1.264       .  A
O3170      V3174   1.906       .  S
O3170      C3177   1.265       .  A
O3171      V3174   1.902       .  S
O3171      C3176   1.264       .  A
O3172      C3175   1.265       .  A
C3175      C3529   1.494       .  S
C3176      C3543   1.485       .  S
C3178      C3261   1.465       .  S
O3179      V3187   1.903       .  S
O3179      C3189   1.265       .  A
O3180      V3187   1.901       .  S
O3180      C3190   1.265       .  A
O3181      V3187   1.903       .  S
O3181      C3191   1.263       .  A
O3182      V3187   1.904       .  S
O3182      C3192   1.264       .  A
O3183      V3188   1.902       .  S
O3183      C3192   1.263       .  A
O3184      V3188   1.904       .  S
O3184      C3191   1.264       .  A
O3185      V3188   1.902       .  S
O3185      C3190   1.266       .  A
O3186      V3188   1.905       .  S
O3186      C3189   1.265       .  A
V3187      V3188   2.088       .  T
C3189      C3546   1.485       .  S
C3190      C3532   1.493       .  S
C3191      C3303   1.464       .  S
C3192      C3275   1.463       .  S
O3193      V3201   1.903       .  S
O3193      C3203   1.263       .  A
O3195      C3205   1.265       .  A
O3196      V3201   1.900       .  S
O3196      C3206   1.265       .  A
O3197      V3202   1.905       .  S
O3197      C3206   1.265       .  A
O3198      C3205   1.266       .  A
O3199      V3202   1.903       .  S
O3199      C3204   1.263       .  A
V3201      V3202   2.089       .  T
C3204      C3288   1.464       .  S
C3205      C3501   1.488       .  S
C3206      C3515   1.490       .  S
O3207      V3215   1.905       .  S
O3207      C3217   1.265       .  A
O3208      V3215   1.905       .  S
O3208      C3218   1.266       .  A
O3209      V3215   1.905       .  S
O3209      C3219   1.265       .  A
O3210      V3215   1.901       .  S
O3210      C3220   1.263       .  A
O3211      V3216   1.904       .  S
O3211      C3220   1.264       .  A
O3212      V3216   1.905       .  S
O3212      C3219   1.264       .  A
O3213      V3216   1.905       .  S
O3213      C3218   1.265       .  A
O3214      V3216   1.902       .  S
O3214      C3217   1.265       .  A
V3215      V3216   2.088       .  T
C3217      C3518   1.490       .  S
C3218      C3504   1.489       .  S
C3219      C3330   1.466       .  S
C3220      C3302   1.462       .  S
O3221      V3229   1.903       .  S
O3221      C3231   1.264       .  A
O3222      C3232   1.265       .  A
O3223      V3229   1.905       .  S
O3223      C3233   1.265       .  A
O3225      C3234   1.262       .  A
O3226      V3230   1.897       .  S
O3227      V3230   1.906   1_556  S
O3227      C3232   1.267       .  A
O3228      C3231   1.265       .  A
C3231      C3487   1.484       .  S
C3232      C3473   1.495       .  S
C3233      C3317   1.460       .  S
O3235      V3243   1.906       .  S
O3235      C3245   1.265       .  A
O3236      V3243   1.905       .  S
O3236      C3246   1.266       .  A
O3237      V3243   1.901       .  S
O3237      C3247   1.263       .  A
O3238      V3243   1.904       .  S
O3238      C3248   1.264       .  A
O3239      V3244   1.897       .  S
O3239      C3248   1.262       .  A
O3240      V3244   1.899       .  S
O3240      C3247   1.263       .  A
O3241      V3244   1.903       .  S
O3241      C3246   1.266       .  A
O3242      V3244   1.898       .  S
O3242      C3245   1.264       .  A
V3243      V3244   2.088       .  T
C3245      C3490   1.484       .  S
C3246      C3476   1.496       .  S
C3247      C3359   1.459       .  S
C3248      C3331   1.459       .  S
O3249      V3257   1.898       .  S
O3250      V3257   1.902       .  S
O3251      V3257   1.903       .  S
O3251      C3261   1.264       .  A
O3252      V3257   1.909       .  S
O3252      C3262   1.266       .  A
O3253      V3258   1.902       .  S
O3254      V3258   1.905       .  S
O3255      V3258   1.897       .  S
O3255      C3260   1.262   1_556  A
O3256      V3258   1.897       .  S
O3256      C3259   1.265   1_556  A
O3263      V3271   1.894       .  S
O3263      C3273   1.264       .  A
O3264      V3271   1.893       .  S
O3264      C3274   1.261       .  A
O3265      V3271   1.906       .  S
O3265      C3275   1.265       .  A
O3266      V3271   1.906       .  S
O3266      C3276   1.266       .  A
O3267      V3272   1.904       .  S
O3267      C3276   1.265       .  A
O3268      V3272   1.900       .  S
O3268      C3275   1.263       .  A
O3269      V3272   1.906       .  S
O3269      C3274   1.265       .  A
O3270      V3272   1.905       .  S
O3270      C3273   1.266       .  A
V3271      V3272   2.084       .  T
C3273      C3417   1.503       .  S
O3277      V3285   1.901       .  S
O3278      V3285   1.902       .  S
O3279      V3285   1.906       .  S
O3279      C3289   1.264       .  A
O3280      V3285   1.904       .  S
O3280      C3290   1.266   1_556  A
O3281      V3286   1.903       .  S
O3282      V3286   1.899       .  S
O3283      V3286   1.905       .  S
O3283      C3288   1.265       .  A
O3284      V3286   1.907       .  S
O3284      C3287   1.266       .  A
C3287      C3403   1.491       .  S
O3291      V3299   1.906       .  S
O3291      C3301   1.266       .  A
O3292      V3299   1.906       .  S
O3292      C3302   1.265       .  A
O3293      V3299   1.900       .  S
O3293      C3303   1.262       .  A
O3294      V3299   1.902       .  S
O3294      C3304   1.264       .  A
O3295      V3300   1.906       .  S
O3295      C3304   1.266       .  A
O3296      V3300   1.906       .  S
O3296      C3303   1.265       .  A
O3297      V3300   1.900       .  S
O3297      C3302   1.262       .  A
O3298      V3300   1.902       .  S
O3298      C3301   1.264       .  A
V3299      V3300   2.087       .  T
C3301      C3389   1.488       .  S
C3304      C3431   1.487       .  S
O3305      V3313   1.903       .  S
O3306      V3313   1.904       .  S
O3307      V3313   1.901       .  S
O3307      C3317   1.263       .  A
O3308      V3313   1.899       .  S
O3308      C3318   1.265       .  A
O3309      V3314   1.898       .  S
O3310      V3314   1.900       .  S
O3311      V3314   1.905       .  S
O3311      C3316   1.264   1_556  A
O3312      V3314   1.906       .  S
O3312      C3315   1.266   1_556  A
C3315      C3406   1.489       .  S
C3318      C3375   1.499       .  S
O3319      V3327   1.911       .  S
O3319      C3329   1.267       .  A
O3320      V3327   1.908       .  S
O3320      C3330   1.265       .  A
O3321      V3327   1.896       .  S
O3321      C3331   1.261       .  A
O3322      V3327   1.890       .  S
O3322      C3332   1.262       .  A
O3323      V3328   1.906       .  S
O3323      C3332   1.267       .  A
O3324      V3328   1.903       .  S
O3324      C3331   1.264       .  A
O3325      V3328   1.902       .  S
O3325      C3330   1.263       .  A
O3326      V3328   1.900       .  S
O3326      C3329   1.264       .  A
V3327      V3328   2.086       .  T
C3329      C3392   1.489       .  S
C3332      C3361   1.500       .  S
O3333      V3341   1.899       .  S
O3334      V3341   1.897       .  S
O3335      V3341   1.901       .  S
O3335      C3345   1.263   1_556  A
O3336      V3341   1.895       .  S
O3336      C3346   1.264       .  A
O3337      V3342   1.900       .  S
O3338      V3342   1.901       .  S
O3339      V3342   1.899       .  S
O3339      C3344   1.262       .  A
O3340      V3342   1.895       .  S
O3340      C3343   1.265       .  A
C3343      C3448   1.500       .  S
O3347      V3355   1.899       .  S
O3347      C3357   1.265       .  A
O3348      V3355   1.899       .  S
O3348      C3358   1.263       .  A
O3349      V3355   1.900       .  S
O3349      C3359   1.264       .  A
O3350      V3355   1.901       .  S
O3350      C3360   1.265       .  A
O3351      V3356   1.894       .  S
O3351      C3360   1.264       .  A
O3352      V3356   1.901       .  S
O3352      C3359   1.263       .  A
O3353      V3356   1.900       .  S
O3353      C3358   1.263       .  A
O3354      V3356   1.899       .  S
O3354      C3357   1.265       .  A
V3355      V3356   2.082       .  T
C3357      C3420   1.498       .  S
C3361      C3362   1.420       .  A
C3361      C3366   1.419       .  A
C3362      C3363   1.410       .  A
C3362      C3367   1.453       .  S
C3363      C3364   1.418       .  A
C3363      C3370   1.454       .  S
C3364      C3365   1.418       .  A
C3365      C3366   1.414       .  A
C3365      C3368   1.452       .  S
C3366      C3369   1.453       .  S
C3367      N3374   1.158       .  T
C3369      N3371   1.158       .  T
C3375      C3376   1.419       .  A
C3376      C3377   1.412       .  A
C3376      C3381   1.453       .  S
C3377      C3384   1.453       .  S
C3378      C3379   1.418       .  A
C3379      C3380   1.412       .  A
C3379      C3382   1.453       .  S
C3380      C3383   1.452       .  S
C3381      N3388   1.158       .  T
C3383      N3385   1.158       .  T
C3389      C3390   1.414       .  A
C3389      C3394   1.413       .  A
C3390      C3395   1.452       .  S
C3391      C3392   1.412       .  A
C3391      C3398   1.448       .  S
C3392      C3393   1.414       .  A
C3393      C3396   1.452       .  S
C3394      C3397   1.450       .  S
C3395      N3402   1.157       .  T
C3396      N3401   1.157       .  T
C3397      N3399   1.157       .  T
C3398      N3400   1.156       .  T
C3403      C3404   1.414       .  A
C3404      C3409   1.449       .  S
C3405      C3412   1.452       .  S
C3406      C3407   1.412   1_554  A
C3407      C3410   1.449       .  S
C3408      C3411   1.452       .  S
C3409      N3416   1.157       .  T
C3410      N3415   1.156       .  T
C3411      N3413   1.157       .  T
C3412      N3414   1.157       .  T
C3417      C3418   1.422       .  A
C3417      C3422   1.420       .  A
C3418      C3423   1.453       .  S
C3419      C3420   1.416       .  A
C3419      C3426   1.453       .  S
C3420      C3421   1.418       .  A
C3421      C3424   1.453       .  S
C3422      C3425   1.452       .  S
C3423      N3430   1.157       .  T
C3424      N3429   1.158       .  T
C3425      N3427   1.158       .  T
C3426      N3428   1.158       .  T
C3431      C3432   1.413       .  A
C3431      C3436   1.412       .  A
C3432      C3433   1.413       .  A
C3432      C3437   1.452       .  S
C3433      C3434   1.413       .  A
C3433      C3440   1.449       .  S
C3434      C3435   1.413       .  A
C3435      C3436   1.413       .  A
C3435      C3438   1.450       .  S
C3436      C3439   1.449       .  S
C3437      N3444   1.157       .  T
C3439      N3441   1.156       .  T
C3445      C3446   1.420       .  A
C3446      C3451   1.453       .  S
C3447      C3448   1.419       .  A
C3447      C3454   1.454       .  S
C3449      C3452   1.453       .  S
C3450      C3453   1.454       .  S
C3451      N3458   1.158       .  T
C3452      N3457   1.158       .  T
C3453      N3455   1.157       .  T
C3454      N3456   1.157       .  T
C3459      C3460   1.413       .  A
C3460      C3461   1.415       .  A
C3460      C3465   1.452       .  S
C3461      C3462   1.414       .  A
C3461      C3468   1.449       .  S
C3463      C3464   1.411       .  A
C3463      C3466   1.450       .  S
C3464      C3467   1.450       .  S
C3465      N3472   1.157       .  T
C3467      N3469   1.157       .  T
C3473      C3474   1.414       .  A
C3473      C3478   1.416       .  A
C3474      C3475   1.413       .  A
C3474      C3479   1.450       .  S
C3475      C3476   1.416       .  A
C3475      C3482   1.451       .  S
C3476      C3477   1.416       .  A
C3477      C3478   1.414       .  A
C3477      C3480   1.452       .  S
C3478      C3481   1.452       .  S
C3479      N3486   1.157       .  T
C3480      N3485   1.157       .  T
C3481      N3483   1.158       .  T
C3482      N3484   1.157       .  T
C3487      C3488   1.410       .  A
C3487      C3492   1.414       .  A
C3488      C3489   1.409       .  A
C3488      C3493   1.449       .  S
C3489      C3490   1.411       .  A
C3489      C3496   1.449       .  S
C3490      C3491   1.413       .  A
C3491      C3492   1.415       .  A
C3491      C3494   1.451       .  S
C3492      C3495   1.451       .  S
C3493      N3500   1.156       .  T
C3494      N3499   1.157       .  T
C3495      N3497   1.157       .  T
C3496      N3498   1.156       .  T
C3501      C3502   1.414       .  A
C3501      C3506   1.412       .  A
C3502      C3503   1.415       .  A
C3502      C3507   1.451       .  S
C3503      C3504   1.414       .  A
C3503      C3510   1.451       .  S
C3504      C3505   1.413       .  A
C3505      C3506   1.411       .  A
C3505      C3508   1.449       .  S
C3506      C3509   1.450       .  S
C3507      N3514   1.157       .  T
C3508      N3513   1.156       .  T
C3509      N3511   1.157       .  T
C3510      N3512   1.157       .  T
C3515      C3516   1.414       .  A
C3515      C3520   1.413       .  A
C3516      C3517   1.415       .  A
C3516      C3521   1.451       .  S
C3517      C3518   1.415       .  A
C3517      C3524   1.451       .  S
C3518      C3519   1.412       .  A
C3519      C3520   1.411       .  A
C3519      C3522   1.449       .  S
C3520      C3523   1.450       .  S
C3521      N3528   1.158       .  T
C3522      N3527   1.156       .  T
C3523      N3525   1.156       .  T
C3524      N3526   1.157       .  T
C3529      C3530   1.416       .  A
C3529      C3534   1.415       .  A
C3530      C3531   1.413       .  A
C3530      C3535   1.452       .  S
C3531      C3532   1.415       .  A
C3531      C3538   1.452       .  S
C3532      C3533   1.416       .  A
C3533      C3534   1.414       .  A
C3533      C3536   1.451       .  S
C3534      C3537   1.451       .  S
C3535      N3542   1.157       .  T
C3536      N3541   1.157       .  T
C3537      N3539   1.157       .  T
C3538      N3540   1.158       .  T
C3543      C3544   1.413       .  A
C3543      C3548   1.411       .  A
C3544      C3545   1.414       .  A
C3544      C3549   1.450       .  S
C3545      C3546   1.413       .  A
C3545      C3552   1.450       .  S
C3546      C3547   1.411       .  A
C3547      C3548   1.410       .  A
C3547      C3550   1.450       .  S
C3548      C3551   1.448       .  S
C3549      N3556   1.157       .  T
C3550      N3555   1.157       .  T
C3551      N3553   1.156       .  T
C3552      N3554   1.157       .  T
C3557      C3558   1.411       .  A
C3557      C3562   1.411       .  A
C3558      C3559   1.412       .  A
C3558      C3563   1.450       .  S
C3559      C3560   1.412       .  A
C3559      C3566   1.449       .  S
C3560      C3561   1.410       .  A
C3561      C3562   1.410       .  A
C3561      C3564   1.450       .  S
C3562      C3565   1.449       .  S
C3563      N3570   1.157       .  T
C3564      N3569   1.157       .  T
C3565      N3567   1.156       .  T
C3566      N3568   1.156       .  T
C3571      C3572   1.418       .  A
C3571      C3576   1.418       .  A
C3572      C3573   1.414       .  A
C3572      C3577   1.452       .  S
C3573      C3574   1.418       .  A
C3573      C3580   1.452       .  S
C3574      C3575   1.418       .  A
C3575      C3576   1.411       .  A
C3575      C3578   1.453       .  S
C3576      C3579   1.453       .  S
C3577      N3584   1.157       .  T
C3578      N3583   1.157       .  T
C3579      N3581   1.157       .  T
C3580      N3582   1.157       .  T
