geometry optimzed in LAMMPS
_audit_creation_date              2020-12-01 
_audit_creation_method            'lammps2cif' 
_symmetry_space_group_name_H-M    'P1' 
_symmetry_Int_Tables_number       1 
_symmetry_cell_setting            triclinic 
loop_ 
_symmetry_equiv_pos_as_xyz 
  x,y,z 
_cell_length_a                    54.50269972 
_cell_length_b                    34.784496258573 
_cell_length_c                    47.82548216232038 
_cell_angle_alpha                 90.01445862283416 
_cell_angle_beta                  89.81568169453803 
_cell_angle_gamma                 89.9696858343686 
loop_ 
_atom_site_label 
_atom_site_type_symbol 
_atom_site_fract_x 
_atom_site_fract_y 
_atom_site_fract_z 
_atom_site_charge 
N1          N  0.15105715  0.06066050  0.41729566    -0.26700
N2          N  0.17161669  0.04655951  0.40683788    -0.34600
C3          C  0.19072308  0.06659139  0.41692347     0.01600
C4          C  0.18189832  0.09484521  0.43486816     0.07600
C5          C  0.15656221  0.08997667  0.43449210    -0.05500
H6          H  0.20949346  0.06148679  0.41064539     0.08300
H7          H  0.14293811  0.10685908  0.44546164     0.09500
Cu8        Cu  0.17270559  0.00155097  0.37859481     0.44200
Cu9        Cu  0.11641239  0.04130111  0.40572996     0.42000
Cu10       Cu  0.11475708  0.97063987  0.34955736     0.43900
N11         N  0.16918969  0.95567012  0.35137115    -0.34100
N12         N  0.14818436  0.94456853  0.34032597    -0.28400
C13         C  0.15225215  0.91334421  0.32434867    -0.04500
C14         C  0.17708457  0.90416930  0.32536494     0.07700
C15         C  0.18711051  0.93181548  0.34288806     0.01500
H16         H  0.13800896  0.89825109  0.31312731     0.09200
H17         H  0.20585718  0.93407001  0.34994236     0.08300
N18         N  0.08366544  0.99640819  0.36660009    -0.35600
N19         N  0.08419717  0.02072342  0.38786624    -0.27800
C20         C  0.06101284  0.02960660  0.39522091    -0.03000
C21         C  0.04511804  0.01037135  0.37753511     0.05600
C22         C  0.06015014  0.98963796  0.35963763     0.03700
H23         H  0.05608796  0.04879535  0.41215691     0.08800
H24         H  0.05443169  0.96997750  0.34340728     0.07600
N25         N  0.83584558  0.93547176  0.41119335    -0.26700
N26         N  0.81456632  0.94901824  0.40231702    -0.34600
C27         C  0.79651456  0.92532282  0.41082059     0.01600
C28         C  0.80692253  0.89519976  0.42555920     0.07600
C29         C  0.83189630  0.90251532  0.42523133    -0.05500
H30         H  0.77729521  0.92940606  0.40613054     0.08300
H31         H  0.84614239  0.88545256  0.43488419     0.09500
Cu32       Cu  0.81090870  0.99792230  0.37774059     0.44200
Cu33       Cu  0.86943880  0.96215086  0.40398078     0.42000
Cu34       Cu  0.86789825  0.04164584  0.35569805     0.43900
N35         N  0.81279261  0.04466210  0.35078636    -0.34100
N36         N  0.83368636  0.06044151  0.34274782    -0.28400
C37         C  0.82889264  0.08997492  0.32550693    -0.04500
C38         C  0.80366471  0.09299614  0.32223578     0.07700
C39         C  0.79410900  0.06369829  0.33874018     0.01500
H40         H  0.84291503  0.10831702  0.31670228     0.09200
H41         H  0.77498600  0.05651843  0.34176152     0.08300
N42         N  0.90006789  0.01937865  0.37207163    -0.35600
N43         N  0.90067294  0.99140983  0.39077108    -0.27800
C44         C  0.92421277  0.98414916  0.39745109    -0.03000
C45         C  0.93908913  0.00836639  0.38187284     0.05600
C46         C  0.92315868  0.03015008  0.36594362     0.03700
H47         H  0.93009235  0.96188871  0.41171954     0.08800
H48         H  0.92799690  0.05221395  0.35095322     0.07600
C49         C  0.22533567  0.77678832  0.26957321     0.02800
C50         C  0.22486278  0.77647742  0.24010145     0.02800
C51         C  0.23703215  0.74742755  0.22538448    -0.17700
C52         C  0.24984891  0.71852008  0.23948379     0.02800
C53         C  0.25035530  0.71842964  0.26910429     0.02800
C54         C  0.23806236  0.74774585  0.28383480    -0.17700
H55         H  0.23865474  0.74825342  0.30651153     0.04800
H56         H  0.23658729  0.74739304  0.20268335     0.04800
N57         N  0.33471423  0.56611693  0.34784712    -0.26700
N58         N  0.31367993  0.54970527  0.35473707    -0.34600
C59         C  0.29513718  0.57039956  0.34392293     0.01600
C60         C  0.30484886  0.60146669  0.32940703     0.07600
C61         C  0.33007389  0.59775107  0.33259882    -0.05500
H62         H  0.27598685  0.56293220  0.34623465     0.08300
H63         H  0.34423025  0.61668438  0.32479828     0.09500
Cu64       Cu  0.31083087  0.49991936  0.37854638     0.44200
Cu65       Cu  0.36907391  0.54462978  0.35854232     0.42000
Cu66       Cu  0.36847631  0.45468641  0.39568933     0.43900
N67         N  0.31351872  0.45036227  0.40261249    -0.34100
N68         N  0.33467477  0.43353799  0.40828285    -0.28400
C69         C  0.33045912  0.40179132  0.42355451    -0.04500
C70         C  0.30543930  0.39850084  0.42796247     0.07700
C71         C  0.29524898  0.42987730  0.41439755     0.01500
H72         H  0.34462819  0.38266993  0.43109551     0.09200
H73         H  0.27596851  0.43685600  0.41263376     0.08300
N74         N  0.40045033  0.48246126  0.38374922    -0.35600
N75         N  0.40080861  0.51581850  0.37055464    -0.27800
C76         C  0.42429896  0.52650672  0.36655315    -0.03000
C77         C  0.43950491  0.49847692  0.37780093     0.05600
C78         C  0.42362960  0.47094824  0.38839832     0.03700
H79         H  0.42980079  0.55246550  0.35579398     0.08800
H80         H  0.42851806  0.44467359  0.39913157     0.07600
N81         N  0.64955691  0.42673208  0.34242128    -0.26700
N82         N  0.67066286  0.44464854  0.34627341    -0.34600
C83         C  0.68878260  0.42390260  0.33445087     0.01600
C84         C  0.67862624  0.39115570  0.32272860     0.07600
C85         C  0.65371949  0.39393754  0.32827855    -0.05500
H86         H  0.70798043  0.43167803  0.33504845     0.08300
H87         H  0.63959018  0.37378091  0.32225526     0.09500
Cu88       Cu  0.67402015  0.49550965  0.36863071     0.44200
Cu89       Cu  0.61593339  0.44781252  0.35617069     0.42000
Cu90       Cu  0.61726513  0.53826520  0.39342089     0.43900
N91         N  0.67250331  0.54462641  0.39323419    -0.34100
N92         N  0.65183989  0.56029546  0.40211369    -0.28400
C93         C  0.65716509  0.59114189  0.41788346    -0.04500
C94         C  0.68253277  0.59535649  0.41922674     0.07700
C95         C  0.69152493  0.56499701  0.40320674     0.01500
H96         H  0.64335584  0.60884465  0.42778648     0.09200
H97         H  0.71039614  0.55736696  0.39919092     0.08300
N98         N  0.58508353  0.50952199  0.38329272    -0.35600
N99         N  0.58461056  0.47616540  0.37007127    -0.27800
C100        C  0.56112162  0.46528129  0.36665437    -0.03000
C101        C  0.54597630  0.49314714  0.37827195     0.05600
C102        C  0.56190652  0.52081315  0.38853249     0.03700
H103        H  0.55557195  0.43950169  0.35574212     0.08800
H104        H  0.55704849  0.54724524  0.39912196     0.07600
C105        C  0.75281212  0.76776011  0.01035478     0.02800
C106        C  0.76013632  0.76915074  0.48352452     0.02800
C107        C  0.74842261  0.73946864  0.46891838    -0.17700
C108        C  0.73532439  0.71070996  0.48312264     0.02800
C109        C  0.72822700  0.70905341  0.01016940     0.02800
C110        C  0.73953960  0.73927776  0.02460327    -0.17700
H111        H  0.73845803  0.74013155  0.04724145     0.04800
H112        H  0.74873130  0.73956241  0.44623948     0.04800
N113        N  0.33048045  0.56543505  0.15911253    -0.26700
N114        N  0.30955571  0.54848466  0.15252929    -0.34600
C115        C  0.29082433  0.56919175  0.16300847     0.01600
C116        C  0.30037363  0.60085353  0.17668287     0.07600
C117        C  0.32556145  0.59766059  0.17365576    -0.05500
H118        H  0.27167255  0.56183069  0.16061292     0.08300
H119        H  0.33933507  0.61681434  0.18202963     0.09500
Cu120      Cu  0.30690642  0.49818995  0.12942205     0.44200
Cu121      Cu  0.36488568  0.54338624  0.14924297     0.42000
Cu122      Cu  0.36421634  0.45382509  0.11093599     0.43900
N123        N  0.30930829  0.44824838  0.10587001    -0.34100
N124        N  0.33042861  0.43181738  0.09953350    -0.28400
C125        C  0.32618009  0.40012235  0.08429246    -0.04500
C126        C  0.30103308  0.39632936  0.08041685     0.07700
C127        C  0.29099245  0.42751878  0.09461974     0.01500
H128        H  0.34061704  0.38135289  0.07697700     0.09200
H129        H  0.27179667  0.43505268  0.09644033     0.08300
N130        N  0.39605477  0.48154900  0.12301131    -0.35600
N131        N  0.39645212  0.51429803  0.13699464    -0.27800
C132        C  0.41994297  0.52457811  0.14124082    -0.03000
C133        C  0.43511257  0.49687774  0.12942163     0.05600
C134        C  0.41919829  0.47014665  0.11795007     0.03700
H135        H  0.42551868  0.55025661  0.15230319     0.08800
H136        H  0.42391277  0.44462116  0.10618879     0.07600
N137        N  0.64637444  0.56128128  0.09548579    -0.26700
N138        N  0.66731166  0.54381438  0.10120765    -0.34600
C139        C  0.68581360  0.56338280  0.08908912     0.01600
C140        C  0.67607293  0.59493515  0.07532278     0.07600
C141        C  0.65100117  0.59258294  0.07984202    -0.05500
H142        H  0.70494855  0.55530463  0.09031035     0.08300
H143        H  0.63701610  0.61157025  0.07170167     0.09500
Cu144      Cu  0.66950769  0.49374421  0.12482018     0.44200
Cu145      Cu  0.61226702  0.54060863  0.10768090     0.42000
Cu146      Cu  0.61152139  0.44791593  0.14189319     0.43900
N147        N  0.66649596  0.44256417  0.14701730    -0.34100
N148        N  0.64539660  0.42555818  0.15266787    -0.28400
C149        C  0.64973643  0.39304861  0.16699054    -0.04500
C150        C  0.67486627  0.38916721  0.17069567     0.07700
C151        C  0.68483378  0.42138419  0.15775466     0.01500
H152        H  0.63548724  0.37378017  0.17416842     0.09200
H153        H  0.70390717  0.42963524  0.15660522     0.08300
N154        N  0.58011914  0.47808533  0.13144475    -0.35600
N155        N  0.58035837  0.51234144  0.11950843    -0.27800
C156        C  0.55711165  0.52444405  0.11617837    -0.03000
C157        C  0.54144443  0.49642616  0.12651705     0.05600
C158        C  0.55674127  0.46738738  0.13590171     0.03700
H159        H  0.55207408  0.55137079  0.10644009     0.08800
H160        H  0.55132386  0.44062689  0.14567143     0.07600
C161        C  0.74900706  0.20959391  0.23052126     0.02800
C162        C  0.74935488  0.20845005  0.26013576     0.02800
C163        C  0.73726163  0.23755816  0.27522145    -0.17700
C164        C  0.72513414  0.26766645  0.26147485     0.02800
C165        C  0.72470750  0.26848491  0.23193249     0.02800
C166        C  0.73675618  0.23955953  0.21685212    -0.17700
H167        H  0.73632174  0.24008433  0.19417027     0.04800
H168        H  0.73797526  0.23754171  0.29788583     0.04800
C169        C  0.22528883  0.21786873  0.02170604     0.02800
C170        C  0.23525231  0.21595896  0.49130370     0.02800
C171        C  0.24723489  0.24481851  0.47602177    -0.17700
C172        C  0.25861076  0.27575001  0.48966906     0.02800
C173        C  0.24880533  0.27748696  0.01958182     0.02800
C174        C  0.23597088  0.24963517  0.03496321    -0.17700
H175        H  0.23506280  0.25191596  0.05754931     0.04800
H176        H  0.24704203  0.24382784  0.45336322     0.04800
N177        N  0.14586171  0.06565668  0.10398228    -0.26700
N178        N  0.16654992  0.04680765  0.10838055    -0.34600
C179        C  0.18522495  0.06652474  0.09689704     0.01600
C180        C  0.17584543  0.09946952  0.08468928     0.07600
C181        C  0.15082732  0.09797153  0.08968352    -0.05500
H182        H  0.20422887  0.05771557  0.09788292     0.08300
H183        H  0.13713334  0.11851762  0.08302982     0.09500
Cu184      Cu  0.16874004  0.99561670  0.13015269     0.44200
Cu185      Cu  0.11168989  0.04637020  0.11668656     0.42000
Cu186      Cu  0.11097850  0.95564220  0.15301801     0.43900
N187        N  0.16580674  0.94593484  0.15359894    -0.34100
N188        N  0.14462623  0.93116804  0.16172374    -0.28400
C189        C  0.14886679  0.89927104  0.17676656    -0.04500
C190        C  0.17396543  0.89376623  0.17827690     0.07700
C191        C  0.18414500  0.92399884  0.16344747     0.01500
H192        H  0.13470260  0.88211169  0.18655199     0.09200
H193        H  0.20343821  0.92970908  0.16007330     0.08300
N194        N  0.07961843  0.98485179  0.14142720    -0.35600
N195        N  0.07980745  0.01840013  0.12849738    -0.27800
C196        C  0.05657689  0.02903439  0.12314792    -0.03000
C197        C  0.04100484  0.00067393  0.13312821     0.05600
C198        C  0.05630373  0.97309567  0.14454364     0.03700
H199        H  0.05154812  0.05476888  0.11184797     0.08800
H200        H  0.05094506  0.94627290  0.15422625     0.07600
N201        N  0.82911782  0.05808547  0.14888229    -0.26700
N202        N  0.80840644  0.04064827  0.14219516    -0.34600
C203        C  0.78945392  0.06098105  0.15257686     0.01600
C204        C  0.79874628  0.09286478  0.16623887     0.07600
C205        C  0.82392860  0.09020389  0.16333614    -0.05500
H206        H  0.77035965  0.05308599  0.15033267     0.08300
H207        H  0.83753308  0.10948298  0.17192202     0.09500
Cu208      Cu  0.80701554  0.98966407  0.11979422     0.44200
Cu209      Cu  0.86356243  0.03626407  0.14008143     0.42000
Cu210      Cu  0.86595087  0.94527806  0.10428405     0.43900
N211        N  0.81100618  0.93832691  0.09820010    -0.34100
N212        N  0.83241568  0.92199266  0.09299091    -0.28400
C213        C  0.82873858  0.88933872  0.07860746    -0.04500
C214        C  0.80372567  0.88489008  0.07413972     0.07700
C215        C  0.79312366  0.91658788  0.08708977     0.01500
H216        H  0.84342089  0.87051392  0.07208146     0.09200
H217        H  0.77387837  0.92395105  0.08790780     0.08300
N218        N  0.89689348  0.97486161  0.11721317    -0.35600
N219        N  0.89591269  0.00815480  0.13043800    -0.27800
C220        C  0.91883144  0.01995976  0.13602071    -0.03000
C221        C  0.93517178  0.99280308  0.12580037     0.05600
C222        C  0.92051940  0.96460492  0.11392554     0.03700
H223        H  0.92318834  0.04631419  0.14692265     0.08800
H224        H  0.92643232  0.93886211  0.10317244     0.07600
C225        C  0.97413652  0.03019157  0.12955591    -0.20800
C226        C  0.96233100  0.99442790  0.12709939    -0.08800
C227        C  0.97672310  0.96079850  0.12641837     0.30100
C228        C  0.00225206  0.96315525  0.12839131    -0.20800
C229        C  0.01398568  0.99891808  0.13083405    -0.08800
C230        C  0.99966832  0.03253183  0.13131230     0.30100
F231        F  0.01019628  0.06761610  0.13438393    -0.19300
H232        H  0.96361846  0.05659461  0.13000397     0.18400
H233        H  0.01287721  0.93684188  0.12784378     0.18400
F234        F  0.96625920  0.92550919  0.12471747    -0.19300
C235        C  0.22256725  0.15039778  0.03897041    -0.20800
C236        C  0.21335950  0.18803975  0.03903347    -0.08800
C237        C  0.19245492  0.19676401  0.05501292     0.30100
C238        C  0.18042612  0.16779618  0.06988890    -0.20800
C239        C  0.18935273  0.12988661  0.06954122    -0.08800
C240        C  0.21078615  0.12149649  0.05418336     0.30100
F241        F  0.21984857  0.08520269  0.05288241    -0.19300
H242        H  0.23876512  0.14336253  0.02681672     0.18400
H243        H  0.16412244  0.17507918  0.08175194     0.18400
F244        F  0.18320350  0.23300015  0.05539719    -0.19300
C245        C  0.75323083  0.14144620  0.21468118    -0.20800
C246        C  0.76106837  0.17979129  0.21323326    -0.08800
C247        C  0.78072278  0.18958099  0.19556235     0.30100
C248        C  0.79281558  0.16111042  0.18023014    -0.20800
C249        C  0.78511435  0.12267708  0.18175434    -0.08800
C250        C  0.76503845  0.11303535  0.19892537     0.30100
F251        F  0.75751723  0.07600672  0.20140816    -0.19300
H252        H  0.73807710  0.13354500  0.22823560     0.18400
H253        H  0.80821592  0.16909895  0.16707078     0.18400
F254        F  0.78867059  0.22649100  0.19386225    -0.19300
C255        C  0.67464633  0.33387776  0.20436135    -0.20800
C256        C  0.68783748  0.35795354  0.18601914    -0.08800
C257        C  0.71324299  0.35151080  0.18259624     0.30100
C258        C  0.72501608  0.32247435  0.19766237    -0.20800
C259        C  0.71182503  0.29911782  0.21623153    -0.08800
C260        C  0.68643511  0.30458770  0.21914106     0.30100
F261        F  0.67295460  0.28112657  0.23585723    -0.19300
H262        H  0.65513824  0.33766893  0.20750217     0.18400
H263        H  0.74455849  0.31817404  0.19485710     0.18400
F264        F  0.72678425  0.37239403  0.16427262    -0.19300
C265        C  0.26211113  0.36169988  0.06779335    -0.20800
C266        C  0.28768868  0.36592061  0.06457258    -0.08800
C267        C  0.30006783  0.34086024  0.04605068     0.30100
C268        C  0.28725634  0.31232913  0.03171590    -0.20800
C269        C  0.26184219  0.30836424  0.03493183    -0.08800
C270        C  0.24929085  0.33327338  0.05313868     0.30100
F271        F  0.23519082  0.32223889  0.56157044    -0.19300
H272        H  0.25189568  0.38018809  0.08180689     0.18400
H273        H  0.29727433  0.29313757  0.01796654     0.18400
F274        F  0.32447146  0.34394827  0.04111252    -0.19300
C275        C  0.47545500  0.53118143  0.13076212    -0.20800
C276        C  0.46235518  0.49650125  0.12872404    -0.08800
C277        C  0.47558378  0.46184662  0.12618204     0.30100
C278        C  0.50122296  0.46217034  0.12549808    -0.20800
C279        C  0.51426965  0.49687088  0.12721274    -0.08800
C280        C  0.50111203  0.53148304  0.12996742     0.30100
F281        F  0.51296174  0.56555163  0.13278282    -0.19300
H282        H  0.46584708  0.55829317  0.13277903     0.18400
H283        H  0.51088851  0.43510112  0.12343190     0.18400
F284        F  0.46392508  0.42743571  0.12516512    -0.19300
C285        C  0.76544155  0.84901289  0.06131494    -0.20800
C286        C  0.79093884  0.85413111  0.05815332    -0.08800
C287        C  0.80365710  0.83018732  0.03917575     0.30100
C288        C  0.79112716  0.80221051  0.02392074    -0.20800
C289        C  0.76571240  0.79762822  0.02687102    -0.08800
C290        C  0.75293105  0.82110958  0.04585553     0.30100
F291        F  0.72827659  0.81755129  0.04905637    -0.19300
H292        H  0.75504478  0.86654453  0.07579111     0.18400
H293        H  0.80132935  0.78404127  0.00962689     0.18400
F294        F  0.82807042  0.83411178  0.03457222    -0.19300
C295        C  0.71029355  0.61375509  0.04308226    -0.20800
C296        C  0.68944577  0.62421076  0.05871930    -0.08800
C297        C  0.68157805  0.66276250  0.05831250     0.30100
C298        C  0.69436049  0.69012412  0.04258302    -0.20800
C299        C  0.71487202  0.67949039  0.02657240    -0.08800
C300        C  0.72282980  0.64106834  0.02696852     0.30100
F301        F  0.74581234  0.63065093  0.51010620    -0.19300
H302        H  0.71671056  0.58428498  0.04305671     0.18400
H303        H  0.68815568  0.71972105  0.04270963     0.18400
F304        F  0.66200294  0.67432171  0.07377707    -0.19300
C305        C  0.68232253  0.32176106  0.30998806    -0.20800
C306        C  0.69140801  0.35947969  0.30794355    -0.08800
C307        C  0.71233005  0.36643305  0.29133559     0.30100
C308        C  0.72336447  0.33635014  0.27650485    -0.20800
C309        C  0.71400958  0.29887756  0.27831420    -0.08800
C310        C  0.69368827  0.29159604  0.29559821     0.30100
F311        F  0.68437924  0.25553147  0.29779924    -0.19300
H312        H  0.66642685  0.31556608  0.32285848     0.18400
H313        H  0.73911821  0.34230813  0.26332902     0.18400
F314        F  0.72158229  0.40243079  0.28850932    -0.19300
C315        C  0.73477264  0.65602920  0.44932613    -0.20800
C316        C  0.72186207  0.68169681  0.46647356    -0.08800
C317        C  0.69619099  0.67977716  0.46741950     0.30100
C318        C  0.68370753  0.65187152  0.45199649    -0.20800
C319        C  0.69648671  0.62525911  0.43510467    -0.08800
C320        C  0.72237482  0.62796372  0.43388739     0.30100
F321        F  0.73600844  0.60388791  0.41789042    -0.19300
H322        H  0.75460999  0.65742559  0.44821895     0.18400
H323        H  0.66393740  0.65133420  0.45353363     0.18400
F324        F  0.68315386  0.70527975  0.48300080    -0.19300
C325        C  0.30193313  0.32954041  0.44160847    -0.20800
C326        C  0.29265010  0.36718550  0.44305393    -0.08800
C327        C  0.27155183  0.37437071  0.45929143     0.30100
C328        C  0.26031012  0.34440857  0.47408894    -0.20800
C329        C  0.26971804  0.30686787  0.47265056    -0.08800
C330        C  0.29044602  0.29954116  0.45600176     0.30100
F331        F  0.30008807  0.26361496  0.45452529    -0.19300
H332        H  0.31809119  0.32326724  0.42916873     0.18400
H333        H  0.24009908  0.34961410  0.98672619     0.18400
F334        F  0.26238736  0.41049813  0.46179298    -0.19300
C335        C  0.47906734  0.46192290  0.37855114    -0.20800
C336        C  0.46675639  0.49744089  0.37820263    -0.08800
C337        C  0.48074618  0.53144993  0.37850067     0.30100
C338        C  0.50640469  0.52973946  0.37878370    -0.20800
C339        C  0.51871973  0.49422460  0.37858382    -0.08800
C340        C  0.50472304  0.46020897  0.37864368     0.30100
F341        F  0.51570515  0.42521711  0.37949479    -0.19300
H342        H  0.46882684  0.43526538  0.37843523     0.18400
H343        H  0.51664660  0.55639342  0.37881341     0.18400
F344        F  0.46974236  0.56642729  0.37925902    -0.19300
C345        C  0.18979441  0.79784514  0.21093416    -0.20800
C346        C  0.21199808  0.80651280  0.22414895    -0.08800
C347        C  0.22196108  0.84353479  0.22178251     0.30100
C348        C  0.20960797  0.87172445  0.20654720    -0.20800
C349        C  0.18709964  0.86338796  0.19367535    -0.08800
C350        C  0.17730965  0.82607250  0.19587281     0.30100
F351        F  0.15608431  0.81654035  0.18284223    -0.19300
H352        H  0.18212049  0.76918760  0.21241780     0.18400
H353        H  0.21746668  0.90025690  0.20517141     0.18400
F354        F  0.24369806  0.85223051  0.23401656    -0.19300
C355        C  0.28936571  0.68340160  0.27958196    -0.20800
C356        C  0.26429259  0.68888538  0.28490485    -0.08800
C357        C  0.25263630  0.66572380  0.30498195     0.30100
C358        C  0.26593347  0.63761218  0.31940135    -0.20800
C359        C  0.29107758  0.63175261  0.31395790    -0.08800
C360        C  0.30258650  0.65488623  0.29354400     0.30100
F361        F  0.32638848  0.64945719  0.28624898    -0.19300
H362        H  0.29873919  0.70111711  0.26428187     0.18400
H363        H  0.25642347  0.62049357  0.33491437     0.18400
F364        F  0.22827090  0.66973330  0.31020342    -0.19300
C365        C  0.25408552  0.65045267  0.22372933    -0.20800
C366        C  0.26230155  0.68858936  0.22268807    -0.08800
C367        C  0.28255069  0.69802582  0.20580270     0.30100
C368        C  0.29488520  0.66931410  0.19089351    -0.20800
C369        C  0.28678640  0.63102721  0.19200371    -0.08800
C370        C  0.26606087  0.62186184  0.20832328     0.30100
F371        F  0.25793881  0.58509161  0.21026288    -0.19300
H372        H  0.23844260  0.64286625  0.23662755     0.18400
H373        H  0.31070031  0.67702105  0.17831781     0.18400
F374        F  0.29074474  0.73482719  0.20438101    -0.19300
C375        C  0.76497254  0.12933506  0.31192932    -0.20800
C376        C  0.78980867  0.12205686  0.30574901    -0.08800
C377        C  0.80107067  0.14317831  0.28404946     0.30100
C378        C  0.78794222  0.17138475  0.26963136    -0.20800
C379        C  0.76314021  0.17843056  0.27576072    -0.08800
C380        C  0.75175287  0.15711142  0.29711693     0.30100
F381        F  0.72775089  0.16290431  0.30351422    -0.19300
H382        H  0.75571337  0.11385535  0.32849731     0.18400
H383        H  0.79724748  0.18784709  0.25358366     0.18400
F384        F  0.82458592  0.13628524  0.27617415    -0.19300
C385        C  0.80526741  0.82600430  0.43955746    -0.20800
C386        C  0.79425456  0.86255679  0.43923760    -0.08800
C387        C  0.77152247  0.86773700  0.45278227     0.30100
C388        C  0.76047062  0.83713575  0.46699770    -0.20800
C389        C  0.77160278  0.80079565  0.46744158    -0.08800
C390        C  0.79388181  0.79518761  0.45321476     0.30100
F391        F  0.80498959  0.76025622  0.45340759    -0.19300
H392        H  0.82268546  0.82128964  0.42914521     0.18400
H393        H  0.74206386  0.84140067  0.97915369     0.18400
F394        F  0.76047666  0.90270055  0.45332251    -0.19300
C395        C  0.22699733  0.83792433  0.29655916    -0.20800
C396        C  0.21304700  0.80782124  0.28550282    -0.08800
C397        C  0.18739797  0.80917424  0.28767528     0.30100
C398        C  0.17590619  0.84031736  0.30082385    -0.20800
C399        C  0.18974863  0.87103490  0.31172096    -0.08800
C400        C  0.21557903  0.86948814  0.30922452     0.30100
F401        F  0.22996054  0.89892442  0.31787917    -0.19300
H402        H  0.24679464  0.83758074  0.29446441     0.18400
H403        H  0.15610866  0.84021434  0.30237252     0.18400
F404        F  0.17347956  0.78050237  0.27683015    -0.19300
C405        C  0.18352463  0.15759131  0.46064673    -0.20800
C406        C  0.19599622  0.12552323  0.44953955    -0.08800
C407        C  0.22179275  0.12381081  0.45240314     0.30100
C408        C  0.23453375  0.15385673  0.46530164    -0.20800
C409        C  0.22187510  0.18552163  0.47619602    -0.08800
C410        C  0.19628652  0.18714184  0.47397559     0.30100
F411        F  0.17518527  0.20365423  0.99409312    -0.19300
H412        H  0.16382770  0.16022484  0.45891356     0.18400
H413        H  0.25428127  0.15199795  0.46745187     0.18400
F414        F  0.23482678  0.09288098  0.44358401    -0.19300
C415        C  0.97838700  0.01015134  0.35507179    -0.20800
C416        C  0.96618272  0.00915925  0.38095007    -0.08800
C417        C  0.98004097  0.00900403  0.40567198     0.30100
C418        C  0.00570479  0.01020600  0.40441578    -0.20800
C419        C  0.01795745  0.01035205  0.37851869    -0.08800
C420        C  0.00404533  0.01013884  0.35378755     0.30100
F421        F  0.01520515  0.01082953  0.32838306    -0.19300
H422        H  0.96800939  0.01026484  0.33579506     0.18400
H423        H  0.01604034  0.01027607  0.42371585     0.18400
F424        F  0.96876425  0.00863045  0.43101571    -0.19300
N425        N  0.14637137  0.06110550  0.91037131    -0.26700
N426        N  0.16726342  0.04644902  0.90125003    -0.34600
C427        C  0.18602210  0.06625973  0.91237039     0.01600
C428        C  0.17662775  0.09519822  0.92940267     0.07600
C429        C  0.15130417  0.09076709  0.92744161    -0.05500
H430        H  0.20499804  0.05936510  0.90826465     0.08300
H431        H  0.13724926  0.10777572  0.93754473     0.09500
Cu432      Cu  0.16963816  0.99970646  0.87450380     0.44200
Cu433      Cu  0.11195444  0.04015000  0.89956796     0.42000
Cu434      Cu  0.11242611  0.95980138  0.85140762     0.43900
N435        N  0.16714383  0.95054840  0.85021280    -0.34100
N436        N  0.14609084  0.93565581  0.84205891    -0.28400
C437        C  0.15048770  0.90305604  0.82784259    -0.04500
C438        C  0.17565081  0.89689864  0.82690494     0.07700
C439        C  0.18556449  0.92796638  0.84124194     0.01500
H440        H  0.13624827  0.88498917  0.81924508     0.09200
H441        H  0.20468442  0.93426107  0.84488186     0.08300
N442        N  0.08080027  0.98609489  0.86567305    -0.35600
N443        N  0.08035716  0.01438996  0.88413560    -0.27800
C444        C  0.05682429  0.02325404  0.88992425    -0.03000
C445        C  0.04189398  0.99977508  0.87395183     0.05600
C446        C  0.05770416  0.97662659  0.85886355     0.03700
H447        H  0.05102846  0.04553994  0.90430587     0.08800
H448        H  0.05280559  0.95400682  0.84441248     0.07600
N449        N  0.83251932  0.92410791  0.90173271    -0.26700
N450        N  0.81138720  0.94083325  0.89574353    -0.34600
C451        C  0.79300362  0.91970490  0.90661799     0.01600
C452        C  0.80308105  0.88799877  0.91985662     0.07600
C453        C  0.82815265  0.89169156  0.91620058    -0.05500
H454        H  0.77374418  0.92656045  0.90454080     0.08300
H455        H  0.84224971  0.87255950  0.92390605     0.09500
Cu456      Cu  0.80852576  0.99062844  0.87194542     0.44200
Cu457      Cu  0.86649889  0.94622500  0.89080241     0.42000
Cu458      Cu  0.86597791  0.02452286  0.84209227     0.43900
N459        N  0.81134238  0.03773936  0.84540695    -0.34100
N460        N  0.83222305  0.04914190  0.83404562    -0.28400
C461        C  0.82805906  0.08012655  0.81803751    -0.04500
C462        C  0.80330402  0.08922166  0.81947204     0.07700
C463        C  0.79329336  0.06138744  0.83694299     0.01500
H464        H  0.84223425  0.09453287  0.80618923     0.09200
H465        H  0.77434902  0.05870286  0.84342901     0.08300
N466        N  0.89783630  0.00148150  0.85832978    -0.35600
N467        N  0.89802678  0.97379475  0.87723940    -0.27800
C468        C  0.92130689  0.96727949  0.88521564    -0.03000
C469        C  0.93643207  0.99183888  0.87033808     0.05600
C470        C  0.92098439  0.01294115  0.85338501     0.03700
H471        H  0.92681654  0.94589943  0.90036215     0.08800
H472        H  0.92613526  0.03556031  0.83897494     0.07600
C473        C  0.22697680  0.77414247  0.76921324     0.02800
C474        C  0.22811553  0.77375077  0.73959234     0.02800
C475        C  0.24051512  0.74368216  0.72600002    -0.17700
C476        C  0.25225794  0.71465028  0.74123747     0.02800
C477        C  0.25183695  0.71573109  0.77076436     0.02800
C478        C  0.23906014  0.74530077  0.78438004    -0.17700
H479        H  0.23858701  0.74594038  0.80707810     0.04800
H480        H  0.24122030  0.74301816  0.70330541     0.04800
N481        N  0.33237439  0.56149451  0.85223308    -0.26700
N482        N  0.31096543  0.54553694  0.85795931    -0.34600
C483        C  0.29302709  0.56789151  0.84758582     0.01600
C484        C  0.30360488  0.59956972  0.83456359     0.07600
C485        C  0.32866065  0.59446719  0.83826442    -0.05500
H486        H  0.27373957  0.56081436  0.84874865     0.08300
H487        H  0.34338712  0.61289107  0.83125654     0.09500
Cu488      Cu  0.30734608  0.49331614  0.87862779     0.44200
Cu489      Cu  0.36591812  0.53656558  0.86140084     0.42000
Cu490      Cu  0.36459446  0.44260557  0.89255451     0.43900
N491        N  0.30948835  0.44105477  0.89950662    -0.34100
N492        N  0.33023238  0.42232486  0.90396807    -0.28400
C493        C  0.32536364  0.39004579  0.91840458    -0.04500
C494        C  0.30039678  0.38854317  0.92362158     0.07700
C495        C  0.29090183  0.42131497  0.91123617     0.01500
H496        H  0.33913468  0.36991685  0.92550070     0.09200
H497        H  0.27190706  0.43033589  0.91083660     0.08300
N498        N  0.39681433  0.47064419  0.88173856    -0.35600
N499        N  0.39725367  0.50526037  0.87042445    -0.27800
C500        C  0.42070035  0.51594856  0.86642807    -0.03000
C501        C  0.43590244  0.48673301  0.87588942     0.05600
C502        C  0.41999830  0.45838136  0.88531779     0.03700
H503        H  0.42610456  0.54294922  0.85707644     0.08800
H504        H  0.42486716  0.43112915  0.89468884     0.07600
N505        N  0.64661676  0.41886551  0.84386309    -0.26700
N506        N  0.66758661  0.43610381  0.84964600    -0.34600
C507        C  0.68603679  0.41688022  0.83722265     0.01600
C508        C  0.67624164  0.38591309  0.82285816     0.07600
C509        C  0.65117585  0.38804849  0.82767576    -0.05500
H510        H  0.70516835  0.42465559  0.83901060     0.08300
H511        H  0.63720190  0.36893092  0.81971300     0.09500
Cu512      Cu  0.67017560  0.48524633  0.87380076     0.44200
Cu513      Cu  0.61277626  0.43885555  0.85760192     0.42000
Cu514      Cu  0.61293608  0.52926493  0.89559902     0.43900
N515        N  0.66813650  0.53611662  0.89607926    -0.34100
N516        N  0.64732426  0.55261804  0.90359575    -0.28400
C517        C  0.65242245  0.58526705  0.91742867    -0.04500
C518        C  0.67777268  0.58967954  0.91889603     0.07700
C519        C  0.68700919  0.55761592  0.90506271     0.01500
H520        H  0.63849770  0.60407841  0.92595652     0.09200
H521        H  0.70595632  0.54955519  0.90204893     0.08300
N522        N  0.58120089  0.49950551  0.88503960    -0.35600
N523        N  0.58120812  0.46638145  0.87148471    -0.27800
C524        C  0.55788831  0.45516327  0.86734318    -0.03000
C525        C  0.54233303  0.48253589  0.87881292     0.05600
C526        C  0.55784351  0.51027240  0.88979728     0.03700
H527        H  0.55274738  0.42960413  0.85590638     0.08800
H528        H  0.55257714  0.53652184  0.90037267     0.07600
C529        C  0.75940963  0.76957437  0.51310147     0.02800
C530        C  0.75466011  0.76610803  0.98084332     0.02800
C531        C  0.74355037  0.73566130  0.96640062    -0.17700
C532        C  0.73007777  0.70739326  0.98066730     0.02800
C533        C  0.73441462  0.71112771  0.51271748     0.02800
C534        C  0.74652609  0.74054054  0.52730424    -0.17700
H535        H  0.74617019  0.74054219  0.54997849     0.04800
H536        H  0.74455058  0.73483514  0.94375674     0.04800
N537        N  0.33500371  0.55672989  0.66933072    -0.26700
N538        N  0.31429825  0.54015654  0.66153022    -0.34600
C539        C  0.29526466  0.56031867  0.67189147     0.01600
C540        C  0.30445106  0.59126916  0.68671743     0.07600
C541        C  0.32969765  0.58809246  0.68461077    -0.05500
H542        H  0.27619685  0.55379907  0.66790619     0.08300
H543        H  0.34323963  0.60743468  0.69323319     0.09500
Cu544      Cu  0.31270004  0.49277136  0.63538219     0.44200
Cu545      Cu  0.36960949  0.53758885  0.65776235     0.42000
Cu546      Cu  0.37117793  0.45370283  0.61368589     0.43900
N547        N  0.31641091  0.44596328  0.60895837    -0.34100
N548        N  0.33782061  0.43134020  0.60155093    -0.28400
C549        C  0.33412048  0.40096544  0.58478466    -0.04500
C550        C  0.30906963  0.39626491  0.58113879     0.07700
C551        C  0.29845947  0.42538609  0.59692475     0.01500
H552        H  0.34877513  0.38342364  0.57642227     0.09200
H553        H  0.27911193  0.43144205  0.59946747     0.08300
N554        N  0.40219058  0.48309723  0.62598795    -0.35600
N555        N  0.40174080  0.51415061  0.64189165    -0.27800
C556        C  0.42488209  0.52634937  0.64587462    -0.03000
C557        C  0.44062777  0.50148451  0.63202695     0.05600
C558        C  0.42555590  0.47452750  0.61955129     0.03700
H559        H  0.42989840  0.55089234  0.65854669     0.08800
H560        H  0.43107912  0.45044242  0.60665470     0.07600
N561        N  0.65133898  0.56381039  0.59721607    -0.26700
N562        N  0.67166356  0.54334940  0.59956464    -0.34600
C563        C  0.69011753  0.56209519  0.58673927     0.01600
C564        C  0.68103762  0.59624172  0.57601473     0.07600
C565        C  0.65635156  0.59628576  0.58305112    -0.05500
H566        H  0.70883888  0.55184765  0.58565525     0.08300
H567        H  0.64285091  0.61787285  0.57775330     0.09500
Cu568      Cu  0.67337970  0.49158403  0.62097757     0.44200
Cu569      Cu  0.61755089  0.54583321  0.61244189     0.42000
Cu570      Cu  0.61654648  0.45794594  0.65274225     0.43900
N571        N  0.67081716  0.44349025  0.64641895    -0.34100
N572        N  0.65029708  0.43182775  0.65847953    -0.28400
C573        C  0.65510675  0.40076192  0.67421530    -0.04500
C574        C  0.67992062  0.39225355  0.67202830     0.07700
C575        C  0.68921138  0.42004043  0.65405591     0.01500
H576        H  0.64146359  0.38583553  0.68656557     0.09200
H577        H  0.70784815  0.42312788  0.64666324     0.08300
N578        N  0.58524510  0.48781485  0.64143987    -0.35600
N579        N  0.58561949  0.52014305  0.62694011    -0.27800
C580        C  0.56242441  0.53151888  0.62218674    -0.03000
C581        C  0.54663583  0.50500727  0.63420812     0.05600
C582        C  0.56181093  0.47764467  0.64617543     0.03700
H583        H  0.55751340  0.55649366  0.60993883     0.08800
H584        H  0.55626622  0.45199524  0.65733301     0.07600
C585        C  0.75493353  0.21271641  0.73130636     0.02800
C586        C  0.75256056  0.21052755  0.76065426     0.02800
C587        C  0.73896347  0.23851255  0.77496032    -0.17700
C588        C  0.72782647  0.26877572  0.76041653     0.02800
C589        C  0.73008712  0.27074651  0.73105548     0.02800
C590        C  0.74377593  0.24291681  0.71678032    -0.17700
H591        H  0.74528374  0.24427194  0.69416911     0.04800
H592        H  0.73748240  0.23719536  0.79757143     0.04800
C593        C  0.23485522  0.21767043  0.52077322     0.02800
C594        C  0.22699022  0.21416195  0.99232510     0.02800
C595        C  0.23985505  0.24192490  0.97694428    -0.17700
C596        C  0.25070991  0.27360350  0.99016844     0.02800
C597        C  0.25861623  0.27710951  0.51927583     0.02800
C598        C  0.24671034  0.24798558  0.53443148    -0.17700
H599        H  0.24686168  0.24864890  0.55709325     0.04800
H600        H  0.24084127  0.23943025  0.95437245     0.04800
N601        N  0.15286738  0.06900419  0.60431216    -0.26700
N602        N  0.17372248  0.05131035  0.61008149    -0.34600
C603        C  0.19237147  0.07102640  0.59850135     0.01600
C604        C  0.18283251  0.10278280  0.58488151     0.07600
C605        C  0.15773427  0.10071946  0.58918512    -0.05500
H606        H  0.21145745  0.06275816  0.59992549     0.08300
H607        H  0.14393998  0.12008998  0.58109267     0.09500
Cu608      Cu  0.17605245  0.00035726  0.63247389     0.44200
Cu609      Cu  0.11863489  0.04738102  0.61499217     0.42000
Cu610      Cu  0.11869554  0.95095091  0.64358841     0.43900
N611        N  0.17333005  0.94762565  0.65251969    -0.34100
N612        N  0.15240087  0.92884858  0.65541685    -0.28400
C613        C  0.15664648  0.89546036  0.66869175    -0.04500
C614        C  0.18142992  0.89319798  0.67467592     0.07700
C615        C  0.19143349  0.92689675  0.66425811     0.01500
H616        H  0.14255313  0.87504582  0.67448200     0.09200
H617        H  0.21045136  0.93567169  0.66508546     0.08300
N618        N  0.08705048  0.98140736  0.63441250    -0.35600
N619        N  0.08700232  0.01683830  0.62446572    -0.27800
C620        C  0.06366197  0.02843618  0.62110206    -0.03000
C621        C  0.04817460  0.99890978  0.62942799     0.05600
C622        C  0.06375229  0.96951699  0.63766018     0.03700
H623        H  0.05850951  0.05601048  0.61251065     0.08800
H624        H  0.05860045  0.94157174  0.64565113     0.07600
N625        N  0.83609606  0.06150464  0.65006667    -0.26700
N626        N  0.81523089  0.04516611  0.64256872    -0.34600
C627        C  0.79644915  0.06561498  0.65320002     0.01600
C628        C  0.80598946  0.09629898  0.66808823     0.07600
C629        C  0.83116731  0.09283972  0.66548691    -0.05500
H630        H  0.77730742  0.05855026  0.65023584     0.08300
H631        H  0.84496942  0.11108682  0.67481300     0.09500
Cu632      Cu  0.81309427  0.99494670  0.61937075     0.44200
Cu633      Cu  0.87052956  0.03991671  0.64088268     0.42000
Cu634      Cu  0.87171385  0.94876993  0.60631749     0.43900
N635        N  0.81685999  0.94294113  0.59862427    -0.34100
N636        N  0.83822631  0.92594726  0.59436309    -0.28400
C637        C  0.83457864  0.89294648  0.58039878    -0.04500
C638        C  0.80966554  0.88894498  0.57529589     0.07700
C639        C  0.79902119  0.92120933  0.58737925     0.01500
H640        H  0.84915516  0.87343937  0.57459605     0.09200
H641        H  0.77979827  0.92883385  0.58752998     0.08300
N642        N  0.90317056  0.97778344  0.61831240    -0.35600
N643        N  0.90271343  0.01148357  0.63098383    -0.27800
C644        C  0.92584638  0.02285544  0.63598740    -0.03000
C645        C  0.94178464  0.99487823  0.62601609     0.05600
C646        C  0.92662823  0.96678079  0.61481637     0.03700
H647        H  0.93061293  0.04938923  0.64641956     0.08800
H648        H  0.93206329  0.94054006  0.60438961     0.07600
C649        C  0.98143250  0.03076397  0.62953984    -0.20800
C650        C  0.96902957  0.99552461  0.62696321    -0.08800
C651        C  0.98294740  0.96142331  0.62566757     0.30100
C652        C  0.00856938  0.96285720  0.62658675    -0.20800
C653        C  0.02095206  0.99813398  0.62882716    -0.08800
C654        C  0.00704762  0.03217647  0.63051899     0.30100
F655        F  0.01803199  0.06684385  0.63390254    -0.19300
H656        H  0.97133004  0.05752467  0.63064513     0.18400
H657        H  0.01872243  0.93615184  0.62529414     0.18400
F658        F  0.97196610  0.92650277  0.62425096    -0.19300
C659        C  0.22960859  0.14989903  0.53710175    -0.20800
C660        C  0.22186332  0.18834374  0.53766388    -0.08800
C661        C  0.20133175  0.19856333  0.55384133     0.30100
C662        C  0.18861092  0.17054393  0.56901732    -0.20800
C663        C  0.19637485  0.13203755  0.56857608    -0.08800
C664        C  0.21697182  0.12187843  0.55234307     0.30100
F665        F  0.22436719  0.08471637  0.55035923    -0.19300
H666        H  0.24539565  0.14158536  0.52468582     0.18400
H667        H  0.17280269  0.17900680  0.58134552     0.18400
F668        F  0.19333870  0.23552159  0.55447791    -0.19300
C669        C  0.75819416  0.14588398  0.71316028    -0.20800
C670        C  0.76810547  0.18292151  0.71527327    -0.08800
C671        C  0.79028624  0.19150193  0.70174348     0.30100
C672        C  0.80250005  0.16311578  0.68644821    -0.20800
C673        C  0.79257233  0.12597840  0.68408335    -0.08800
C674        C  0.77022382  0.11756275  0.69759545     0.30100
F675        F  0.76035585  0.08179284  0.69653323    -0.19300
H676        H  0.74104667  0.13900244  0.72355124     0.18400
H677        H  0.81963297  0.17032705  0.67617009     0.18400
F678        F  0.80021011  0.22718773  0.70362064    -0.19300
C679        C  0.68000854  0.32921205  0.69722324    -0.20800
C680        C  0.69325810  0.36048761  0.68617042    -0.08800
C681        C  0.71900914  0.36106973  0.68937377     0.30100
C682        C  0.73093394  0.33128098  0.70345702    -0.20800
C683        C  0.71748910  0.30084171  0.71487963    -0.08800
C684        C  0.69198290  0.29970639  0.71150204     0.30100
F685        F  0.67870685  0.26999727  0.72202090    -0.19300
H686        H  0.66031783  0.32738213  0.69484096     0.18400
H687        H  0.75065163  0.33242461  0.70611539     0.18400
F688        F  0.73273933  0.39087518  0.67995356    -0.19300
C689        C  0.27152113  0.35768558  0.57055089    -0.20800
C690        C  0.29626438  0.36611099  0.56478995    -0.08800
C691        C  0.30839795  0.34522182  0.54358577     0.30100
C692        C  0.29617713  0.31606319  0.52922506    -0.20800
C693        C  0.27144815  0.30795495  0.53489323    -0.08800
C694        C  0.25918785  0.32905364  0.55572646     0.30100
F695        F  0.22460882  0.33042958  0.05646442    -0.19300
H696        H  0.26163556  0.37297285  0.58674978     0.18400
H697        H  0.30609240  0.29976506  0.51356025     0.18400
F698        F  0.33185285  0.35328334  0.53609867    -0.19300
C699        C  0.48016179  0.53770259  0.63195394    -0.20800
C700        C  0.46772304  0.50238372  0.63189527    -0.08800
C701        C  0.48138261  0.46808967  0.63242324     0.30100
C702        C  0.50697721  0.46927694  0.63326145    -0.20800
C703        C  0.51948908  0.50455607  0.63318887    -0.08800
C704        C  0.50581573  0.53889581  0.63235693     0.30100
F705        F  0.51711963  0.57363063  0.63285866    -0.19300
H706        H  0.46998921  0.56446422  0.63156778     0.18400
H707        H  0.51702859  0.44242135  0.63378251     0.18400
F708        F  0.47004366  0.43337855  0.63317570    -0.19300
C709        C  0.77194986  0.85075287  0.56422369    -0.20800
C710        C  0.79708030  0.85772586  0.55971493    -0.08800
C711        C  0.80971959  0.83503023  0.53992802     0.30100
C712        C  0.79747975  0.80604353  0.52535138    -0.20800
C713        C  0.77232823  0.79961355  0.52953738    -0.08800
C714        C  0.75966172  0.82206418  0.54929071     0.30100
F715        F  0.73527959  0.81680838  0.55370455    -0.19300
H716        H  0.76171145  0.86749475  0.57935619     0.18400
H717        H  0.80767718  0.78869039  0.51054180     0.18400
F718        F  0.83367177  0.84148628  0.53378310    -0.19300
C719        C  0.71403313  0.61477377  0.54219755    -0.20800
C720        C  0.69472712  0.62578626  0.56002488    -0.08800
C721        C  0.68886993  0.66506265  0.56249336     0.30100
C722        C  0.70195782  0.69254284  0.54717214    -0.20800
C723        C  0.72091955  0.68143093  0.52895336    -0.08800
C724        C  0.72701659  0.64226162  0.52676038     0.30100
F725        F  0.74296830  0.63017564  0.01219001    -0.19300
H726        H  0.71894869  0.58475451  0.53999906     0.18400
H727        H  0.69719383  0.72263645  0.54937514     0.18400
F728        F  0.67103195  0.67708182  0.58032814    -0.19300
C729        C  0.67982559  0.31894507  0.80445224    -0.20800
C730        C  0.68956098  0.35626300  0.80653708    -0.08800
C731        C  0.71197103  0.36457586  0.79303879     0.30100
C732        C  0.72427902  0.33597827  0.77798874    -0.20800
C733        C  0.71459650  0.29874100  0.77630374    -0.08800
C734        C  0.69230859  0.29032218  0.78963636     0.30100
F735        F  0.68252404  0.25452237  0.78801051    -0.19300
H736        H  0.66269942  0.31168377  0.81468661     0.18400
H737        H  0.74144384  0.34282032  0.76763899     0.18400
F738        F  0.72173304  0.40043566  0.79370925    -0.19300
C739        C  0.72972901  0.65287701  0.94655940    -0.20800
C740        C  0.71682244  0.67798153  0.96417855    -0.08800
C741        C  0.69117726  0.67551723  0.96551082     0.30100
C742        C  0.67877484  0.64706956  0.95061876    -0.20800
C743        C  0.69156967  0.62076104  0.93357060    -0.08800
C744        C  0.71734016  0.62461748  0.93127311     0.30100
F745        F  0.73077119  0.60170188  0.91416020    -0.19300
H746        H  0.74950863  0.65501153  0.94482511     0.18400
H747        H  0.65905476  0.64576027  0.95277352     0.18400
F748        F  0.67805377  0.70105580  0.98095200    -0.19300
C749        C  0.29498914  0.32067129  0.93940516    -0.20800
C750        C  0.28718171  0.35915824  0.94017097    -0.08800
C751        C  0.26719587  0.36925237  0.95738097     0.30100
C752        C  0.25535670  0.34128146  0.97346446    -0.20800
C753        C  0.26318774  0.30287319  0.97267455    -0.08800
C754        C  0.28300498  0.29265750  0.95533708     0.30100
F755        F  0.29111235  0.25576918  0.95435578    -0.19300
H756        H  0.31033035  0.31222567  0.92631783     0.18400
H757        H  0.24440385  0.35052049  0.48700166     0.18400
F758        F  0.25967113  0.40632321  0.95953697    -0.19300
C759        C  0.47562846  0.45054929  0.87652001    -0.20800
C760        C  0.46316122  0.48593783  0.87641601    -0.08800
C761        C  0.47701782  0.52009537  0.87736463     0.30100
C762        C  0.50264762  0.51864252  0.87824797    -0.20800
C763        C  0.51510218  0.48328303  0.87811374    -0.08800
C764        C  0.50127727  0.44911762  0.87732258     0.30100
F765        F  0.51240220  0.41423821  0.87816874    -0.19300
H766        H  0.46553301  0.42377822  0.87585061     0.18400
H767        H  0.51276371  0.54540193  0.87883110     0.18400
F768        F  0.46594718  0.55500255  0.87831619    -0.19300
C769        C  0.19893047  0.79499064  0.70250228    -0.20800
C770        C  0.21685287  0.80449043  0.72234165    -0.08800
C771        C  0.22387422  0.84315103  0.72547067     0.30100
C772        C  0.21260319  0.87182739  0.70952469    -0.20800
C773        C  0.19408493  0.86245507  0.69035396    -0.08800
C774        C  0.18749788  0.82368181  0.68674839     0.30100
F775        F  0.17037712  0.81342222  0.66760324    -0.19300
H776        H  0.19351307  0.76531846  0.69957510     0.18400
H777        H  0.21800923  0.90147869  0.71256747     0.18400
F778        F  0.24171587  0.85312751  0.74381977    -0.19300
C779        C  0.29058456  0.68246891  0.78458563    -0.20800
C780        C  0.26517289  0.68688933  0.78775048    -0.08800
C781        C  0.25261091  0.66353773  0.80692771     0.30100
C782        C  0.26529377  0.63578488  0.82233156    -0.20800
C783        C  0.29074975  0.63056357  0.81884046    -0.08800
C784        C  0.30329145  0.65449770  0.79969202     0.30100
F785        F  0.32763888  0.65043005  0.79466881    -0.19300
H786        H  0.30061336  0.70056599  0.77007299     0.18400
H787        H  0.25501322  0.61827473  0.83694519     0.18400
F788        F  0.22796053  0.66694500  0.81022237    -0.19300
C789        C  0.25577695  0.64565472  0.72741650    -0.20800
C790        C  0.26484158  0.68334190  0.72598450    -0.08800
C791        C  0.28658437  0.69071634  0.71116631     0.30100
C792        C  0.29942829  0.66054036  0.69858408    -0.20800
C793        C  0.29047926  0.62273492  0.70003615    -0.08800
C794        C  0.26835948  0.61551955  0.71434258     0.30100
F795        F  0.25941899  0.57924116  0.71661680    -0.19300
H796        H  0.23907900  0.63960515  0.73895734     0.18400
H797        H  0.31632886  0.66677757  0.68750729     0.18400
F798        F  0.29577904  0.72691630  0.70970446    -0.19300
C799        C  0.76460912  0.12011966  0.80224571    -0.20800
C800        C  0.79029147  0.12135206  0.80532353    -0.08800
C801        C  0.80314680  0.15338093  0.79457359     0.30100
C802        C  0.79067609  0.18226014  0.78015919    -0.20800
C803        C  0.76522957  0.18036312  0.77675614    -0.08800
C804        C  0.75214922  0.14951091  0.78827245     0.30100
F805        F  0.72742402  0.14739390  0.78535380    -0.19300
H806        H  0.75409799  0.09611550  0.81021903     0.18400
H807        H  0.80087748  0.20634166  0.77168826     0.18400
F808        F  0.82763017  0.15759718  0.79840930    -0.19300
C809        C  0.79897234  0.81889952  0.93312407    -0.20800
C810        C  0.79013148  0.85678986  0.93481556    -0.08800
C811        C  0.76932705  0.86451409  0.95136713     0.30100
C812        C  0.75787506  0.83487115  0.96621377    -0.20800
C813        C  0.76677518  0.79706436  0.96457054    -0.08800
C814        C  0.78725283  0.78915484  0.94761216     0.30100
F815        F  0.79625240  0.75285924  0.94563986    -0.19300
H816        H  0.81490035  0.81227862  0.92040651     0.18400
H817        H  0.74328322  0.84181386  0.47792235     0.18400
F818        F  0.76060482  0.90087862  0.95405890    -0.19300
C819        C  0.22571472  0.82651031  0.80486872    -0.20800
C820        C  0.21343839  0.80429228  0.78486114    -0.08800
C821        C  0.18841729  0.81103427  0.78002154     0.30100
C822        C  0.17633647  0.84104014  0.79377007    -0.20800
C823        C  0.18876452  0.86439017  0.81316996    -0.08800
C824        C  0.21356949  0.85608120  0.81905614     0.30100
F825        F  0.22616795  0.87580767  0.83878673    -0.19300
H826        H  0.24489820  0.82118638  0.80928175     0.18400
H827        H  0.15724565  0.84604242  0.78889669     0.18400
F828        F  0.17559503  0.78838033  0.76217261    -0.19300
C829        C  0.17694912  0.14999126  0.96354872    -0.20800
C830        C  0.19015714  0.12473300  0.94604936    -0.08800
C831        C  0.21595284  0.12896873  0.94453000     0.30100
C832        C  0.22779763  0.15774116  0.95987786    -0.20800
C833        C  0.21438284  0.18281890  0.97701689    -0.08800
C834        C  0.18882202  0.17882024  0.97862510     0.30100
F835        F  0.18366762  0.21741765  0.48471949    -0.19300
H836        H  0.15723963  0.14805455  0.96551269     0.18400
H837        H  0.24754911  0.16061257  0.95829373     0.18400
F838        F  0.22996043  0.10609625  0.92801550    -0.19300
C839        C  0.97698149  0.99495900  0.84668754    -0.20800
C840        C  0.96335564  0.99446496  0.87159031    -0.08800
C841        C  0.97561912  0.99663602  0.89734972     0.30100
C842        C  0.00122468  0.99952688  0.89803220    -0.20800
C843        C  0.01487965  0.99897394  0.87310457    -0.08800
C844        C  0.00256706  0.99655924  0.84738703     0.30100
F845        F  0.01525183  0.99646134  0.82291614    -0.19300
H846        H  0.96778980  0.99333785  0.82667382     0.18400
H847        H  0.01043889  0.00127339  0.91802312     0.18400
F848        F  0.96282786  0.99678041  0.92174997    -0.19300
loop_ 
_geom_bond_atom_site_label_1 
_geom_bond_atom_site_label_2 
_geom_bond_distance 
_geom_bond_site_symmetry_2 
_ccdc_geom_bond_type 
N1            N2   1.320       .  A
N1            C5   1.345       .  A
N1           Cu9   2.082       .  S
N2            C3   1.344       .  A
N2           Cu8   2.068       .  S
C3            C4   1.389       .  A
C3            H6   1.080       .  S
C4            C5   1.391       .  A
C4          C406   1.492       .  S
C5            H7   1.081       .  S
Cu8          N11   2.069   1_545  S
Cu9          N19   2.082       .  S
Cu10         N12   2.081       .  S
Cu10         N18   2.081       .  S
N11          N12   1.320       .  A
N11          C15   1.343       .  A
N12          C13   1.346       .  A
C13          C14   1.391       .  A
C13          H16   1.081       .  S
C14          C15   1.389       .  A
C14         C399   1.492       .  S
C15          H17   1.080       .  S
N18          N19   1.323   1_565  A
N18          C22   1.346       .  A
N19          C20   1.346       .  A
C20          C21   1.385       .  A
C20          H23   1.082       .  S
C21          C22   1.385   1_545  A
C21         C419   1.481       .  S
C22          H24   1.081       .  S
N25          N26   1.323       .  A
N25          C29   1.346       .  A
N25         Cu33   2.081       .  S
N26          C27   1.346       .  A
N26         Cu32   2.078       .  S
C27          C28   1.385       .  A
C27          H30   1.081       .  S
C28          C29   1.385       .  A
C28         C386   1.481       .  S
C29          H31   1.082       .  S
Cu32         N35   2.077   1_565  S
Cu33         N43   2.080       .  S
Cu34         N36   2.072       .  S
Cu34         N42   2.072       .  S
N35          N36   1.321       .  A
N35          C39   1.346       .  A
N36          C37   1.344       .  A
C37          C38   1.388       .  A
C37          H40   1.080       .  S
C38          C39   1.390       .  A
C38         C376   1.489       .  S
C39          H41   1.081       .  S
N42          N43   1.322   1_545  A
N42          C46   1.345       .  A
N43          C44   1.347       .  A
C44          C45   1.385   1_565  A
C44          H47   1.081       .  S
C45          C46   1.383       .  A
C45         C416   1.477       .  S
C46          H48   1.083       .  S
C49          C50   1.410       .  A
C49          C54   1.403       .  A
C49         C396   1.480       .  S
C50          C51   1.397       .  A
C50         C346   1.473       .  S
C51          C52   1.399       .  A
C51          H56   1.086       .  S
C52          C53   1.417       .  A
C52         C366   1.478       .  S
C53          C54   1.407       .  A
C53         C356   1.486       .  S
C54          H55   1.085       .  S
N57          N58   1.322       .  A
N57          C61   1.345       .  A
N57         Cu65   2.081       .  S
N58          C59   1.345       .  A
N58         Cu64   2.078       .  S
C59          C60   1.389       .  A
C59          H62   1.081       .  S
C60          C61   1.390       .  A
C60         C359   1.491       .  S
C61          H63   1.080       .  S
Cu64         N67   2.078       .  S
Cu65         N75   2.081       .  S
Cu66         N68   2.072       .  S
Cu66         N74   2.072       .  S
N67          N68   1.322       .  A
N67          C71   1.347       .  A
N68          C69   1.344       .  A
C69          C70   1.384       .  A
C69          H72   1.082       .  S
C70          C71   1.387       .  A
C70         C326   1.480       .  S
C71          H73   1.082       .  S
N74          N75   1.321       .  A
N74          C78   1.344       .  A
N75          C76   1.346       .  A
C76          C77   1.389       .  A
C76          H79   1.081       .  S
C77          C78   1.386       .  A
C77         C336   1.486       .  S
C78          H80   1.082       .  S
N81          N82   1.322       .  A
N81          C85   1.345       .  A
N81         Cu89   2.078       .  S
N82          C83   1.346       .  A
N82         Cu88   2.075       .  S
C83          C84   1.386       .  A
C83          H86   1.081       .  S
C84          C85   1.386       .  A
C84         C306   1.482       .  S
C85          H87   1.081       .  S
Cu88         N91   2.076       .  S
Cu89         N99   2.078       .  S
Cu90         N92   2.078       .  S
Cu90         N98   2.078       .  S
N91          N92   1.320       .  A
N91          C95   1.345       .  A
N92          C93   1.344       .  A
C93          C94   1.392       .  A
C93          H96   1.080       .  S
C94          C95   1.392       .  A
C94         C319   1.497       .  S
C95          H97   1.079       .  S
N98          N99   1.322       .  A
N98         C102   1.345       .  A
N99         C100   1.346       .  A
C100        C101   1.388       .  A
C100        H103   1.081       .  S
C101        C102   1.387       .  A
C101        C339   1.486       .  S
C102        H104   1.082       .  S
C105        C110   1.403       .  A
C105        C530   1.416   1_554  A
C105        C289   1.484       .  S
C106        C107   1.402       .  A
C106        C529   1.415       .  A
C106        C389   1.481       .  S
C107        C108   1.403       .  A
C107        H112   1.085       .  S
C108        C533   1.416       .  A
C108        C316   1.482       .  S
C109        C110   1.402       .  A
C109        C532   1.415   1_554  A
C109        C299   1.483       .  S
C110        H111   1.084       .  S
N113        N114   1.323       .  A
N113        C117   1.345       .  A
N113       Cu121   2.078       .  S
N114        C115   1.345       .  A
N114       Cu120   2.074       .  S
C115        C116   1.383       .  A
C115        H118   1.081       .  S
C116        C117   1.384       .  A
C116        C369   1.477       .  S
C117        H119   1.082       .  S
Cu120       N123   2.074       .  S
Cu121       N131   2.078       .  S
Cu122       N124   2.069       .  S
Cu122       N130   2.069       .  S
N123        N124   1.319       .  A
N123        C127   1.345       .  A
N124        C125   1.342       .  A
C125        C126   1.390       .  A
C125        H128   1.080       .  S
C126        C127   1.391       .  A
C126        C266   1.492       .  S
C127        H129   1.082       .  S
N130        N131   1.321       .  A
N130        C134   1.343       .  A
N131        C132   1.346       .  A
C132        C133   1.388       .  A
C132        H135   1.082       .  S
C133        C134   1.386       .  A
C133        C276   1.485       .  S
C134        H136   1.081       .  S
N137        N138   1.322       .  A
N137        C141   1.345       .  A
N137       Cu145   2.075       .  S
N138        C139   1.347       .  A
N138       Cu144   2.080       .  S
C139        C140   1.386       .  A
C139        H142   1.082       .  S
C140        C141   1.385       .  A
C140        C296   1.482       .  S
C141        H143   1.082       .  S
Cu144       N147   2.079       .  S
Cu145       N155   2.075       .  S
Cu146       N148   2.070       .  S
Cu146       N154   2.070       .  S
N147        N148   1.321       .  A
N147        C151   1.345       .  A
N148        C149   1.344       .  A
C149        C150   1.388       .  A
C149        H152   1.081       .  S
C150        C151   1.390       .  A
C150        C256   1.490       .  S
C151        H153   1.080       .  S
N154        N155   1.321       .  A
N154        C158   1.344       .  A
N155        C156   1.345       .  A
C156        C157   1.386       .  A
C156        H159   1.082       .  S
C157        C158   1.385       .  A
C157        C279   1.481       .  S
C158        H160   1.082       .  S
C161        C162   1.417       .  A
C161        C166   1.401       .  A
C161        C246   1.478       .  S
C162        C163   1.406       .  A
C162        C379   1.489       .  S
C163        C164   1.403       .  A
C163        H168   1.085       .  S
C164        C165   1.413       .  A
C164        C309   1.480       .  S
C165        C166   1.400       .  A
C165        C259   1.482       .  S
C166        H167   1.085       .  S
C169        C174   1.402       .  A
C169        C594   1.414   1_554  A
C169        C236   1.478       .  S
C170        C171   1.402       .  A
C170        C593   1.411       .  A
C170        C409   1.476       .  S
C171        C172   1.404       .  A
C171        H176   1.084       .  S
C172        C597   1.417       .  A
C172        C329   1.483       .  S
C173        C174   1.402       .  A
C173        C596   1.417   1_554  A
C173        C269   1.484       .  S
C174        H175   1.084       .  S
N177        N178   1.321       .  A
N177        C181   1.343       .  A
N177       Cu185   2.069       .  S
N178        C179   1.344       .  A
N178       Cu184   2.067   1_545  S
C179        C180   1.385       .  A
C179        H182   1.081       .  S
C180        C181   1.385       .  A
C180        C239   1.478       .  S
C181        H183   1.082       .  S
Cu184       N187   2.066       .  S
Cu185       N195   2.069       .  S
Cu186       N188   2.065       .  S
Cu186       N194   2.065       .  S
N187        N188   1.321       .  A
N187        C191   1.344       .  A
N188        C189   1.343       .  A
C189        C190   1.383       .  A
C189        H192   1.081       .  S
C190        C191   1.384       .  A
C190        C349   1.475       .  S
C191        H193   1.082       .  S
N194        N195   1.321   1_565  A
N194        C198   1.343       .  A
N195        C196   1.344       .  A
C196        C197   1.386       .  A
C196        H199   1.081       .  S
C197        C198   1.384   1_545  A
C197        C229   1.478   1_545  S
C198        H200   1.082       .  S
N201        N202   1.322       .  A
N201        C205   1.343       .  A
N201       Cu209   2.067       .  S
N202        C203   1.345       .  A
N202       Cu208   2.073   1_545  S
C203        C204   1.384       .  A
C203        H206   1.082       .  S
C204        C205   1.382       .  A
C204        C249   1.474       .  S
C205        H207   1.082       .  S
Cu208       N211   2.074       .  S
Cu209       N219   2.066       .  S
Cu210       N212   2.073       .  S
Cu210       N218   2.072       .  S
N211        N212   1.321       .  A
N211        C215   1.345       .  A
N212        C213   1.343       .  A
C213        C214   1.389       .  A
C213        H216   1.079       .  S
C214        C215   1.389       .  A
C214        C286   1.490       .  S
C215        H217   1.080       .  S
N218        N219   1.320   1_565  A
N218        C222   1.345       .  A
N219        C220   1.343       .  A
C220        C221   1.386   1_545  A
C220        H223   1.081       .  S
C221        C222   1.388       .  A
C221        C226   1.483       .  S
C222        H224   1.081       .  S
C225        C226   1.406   1_545  A
C225        C230   1.397       .  A
C225        H232   1.083       .  S
C226        C227   1.408       .  A
C227        C228   1.397   1_655  A
C227        F234   1.356       .  S
C228        C229   1.404       .  A
C228        H233   1.083       .  S
C229        C230   1.406   1_465  A
C230        F231   1.357   1_655  S
C235        C236   1.402       .  A
C235        C240   1.397       .  A
C235        H242   1.083       .  S
C236        C237   1.403       .  A
C237        C238   1.396       .  A
C237        F244   1.357       .  S
C238        C239   1.405       .  A
C238        H243   1.083       .  S
C239        C240   1.408       .  A
C240        F241   1.357       .  S
C245        C246   1.402       .  A
C245        C250   1.398       .  A
C245        H252   1.084       .  S
C246        C247   1.404       .  A
C247        C248   1.396       .  A
C247        F254   1.358       .  S
C248        C249   1.403       .  A
C248        H253   1.084       .  S
C249        C250   1.407       .  A
C250        F251   1.357       .  S
C255        C256   1.409       .  A
C255        C260   1.398       .  A
C255        H262   1.081       .  S
C256        C257   1.412       .  A
C257        C258   1.398       .  A
C257        F264   1.355       .  S
C258        C259   1.401       .  A
C258        H263   1.083       .  S
C259        C260   1.403       .  A
C260        F261   1.357       .  S
C265        C266   1.410       .  A
C265        C270   1.400       .  A
C265        H272   1.082       .  S
C266        C267   1.412       .  A
C267        C268   1.395       .  A
C267        F274   1.354       .  S
C268        C269   1.400       .  A
C268        H273   1.083       .  S
C269        C270   1.404       .  A
C270        F695   1.358       .  S
F271        C694   1.358       .  S
C275        C276   1.406       .  A
C275        C280   1.399       .  A
C275        H282   1.083       .  S
C276        C277   1.409       .  A
C277        C278   1.398       .  A
C277        F284   1.356       .  S
C278        C279   1.404       .  A
C278        H283   1.083       .  S
C279        C280   1.407       .  A
C280        F281   1.357       .  S
C285        C286   1.409       .  A
C285        C290   1.399       .  A
C285        H292   1.081       .  S
C286        C287   1.412       .  A
C287        C288   1.396       .  A
C287        F294   1.355       .  S
C288        C289   1.401       .  A
C288        H293   1.083       .  S
C289        C290   1.404       .  A
C290        F291   1.358       .  S
C295        C296   1.406       .  A
C295        C300   1.400       .  A
C295        H302   1.083       .  S
C296        C297   1.408       .  A
C297        C298   1.398       .  A
C297        F304   1.357       .  S
C298        C299   1.402       .  A
C298        H303   1.083       .  S
C299        C300   1.405       .  A
C300        F725   1.357       .  S
F301        C724   1.357       .  S
C305        C306   1.406       .  A
C305        C310   1.398       .  A
C305        H312   1.083       .  S
C306        C307   1.409       .  A
C307        C308   1.399       .  A
C307        F314   1.357       .  S
C308        C309   1.402       .  A
C308        H313   1.084       .  S
C309        C310   1.403       .  A
C310        F311   1.357       .  S
C315        C316   1.400       .  A
C315        C320   1.399       .  A
C315        H322   1.083       .  S
C316        C317   1.401       .  A
C317        C318   1.397       .  A
C317        F324   1.357       .  S
C318        C319   1.411       .  A
C318        H323   1.080       .  S
C319        C320   1.415       .  A
C320        F321   1.354       .  S
C325        C326   1.405       .  A
C325        C330   1.398       .  A
C325        H332   1.083       .  S
C326        C327   1.408       .  A
C327        C328   1.400       .  A
C327        F334   1.357       .  S
C328        C329   1.404       .  A
C328        H757   1.084       .  S
C329        C330   1.403       .  A
C330        F331   1.357       .  S
H333        C752   1.084       .  S
C335        C336   1.406       .  A
C335        C340   1.400       .  A
C335        H342   1.083       .  S
C336        C337   1.408       .  A
C337        C338   1.400       .  A
C337        F344   1.357       .  S
C338        C339   1.406       .  A
C338        H343   1.082       .  S
C339        C340   1.408       .  A
C340        F341   1.357       .  S
C345        C346   1.400       .  A
C345        C350   1.396       .  A
C345        H352   1.083       .  S
C346        C347   1.402       .  A
C347        C348   1.396       .  A
C347        F354   1.357       .  S
C348        C349   1.405       .  A
C348        H353   1.083       .  S
C349        C350   1.407       .  A
C350        F351   1.357       .  S
C355        C356   1.402       .  A
C355        C360   1.397       .  A
C355        H362   1.084       .  S
C356        C357   1.404       .  A
C357        C358   1.400       .  A
C357        F364   1.358       .  S
C358        C359   1.409       .  A
C358        H363   1.082       .  S
C359        C360   1.411       .  A
C360        F361   1.355       .  S
C365        C366   1.401       .  A
C365        C370   1.398       .  A
C365        H372   1.084       .  S
C366        C367   1.405       .  A
C367        C368   1.398       .  A
C367        F374   1.358       .  S
C368        C369   1.404       .  A
C368        H373   1.083       .  S
C369        C370   1.408       .  A
C370        F371   1.357       .  S
C375        C376   1.407       .  A
C375        C380   1.399       .  A
C375        H382   1.082       .  S
C376        C377   1.411       .  A
C377        C378   1.397       .  A
C377        F384   1.356       .  S
C378        C379   1.404       .  A
C378        H383   1.083       .  S
C379        C380   1.405       .  A
C380        F381   1.357       .  S
C385        C386   1.406       .  A
C385        C390   1.400       .  A
C385        H392   1.083       .  S
C386        C387   1.408       .  A
C387        C388   1.399       .  A
C387        F394   1.357       .  S
C388        C389   1.402       .  A
C388        H817   1.083       .  S
C389        C390   1.404       .  A
C390        F391   1.357       .  S
H393        C812   1.083       .  S
C395        C396   1.399       .  A
C395        C400   1.399       .  A
C395        H402   1.083       .  S
C396        C397   1.402       .  A
C397        C398   1.399       .  A
C397        F404   1.357       .  S
C398        C399   1.409       .  A
C398        H403   1.081       .  S
C399        C400   1.413       .  A
C400        F401   1.355       .  S
C405        C406   1.409       .  A
C405        C410   1.396       .  A
C405        H412   1.081       .  S
C406        C407   1.414       .  A
C407        C408   1.399       .  A
C407        F414   1.355       .  S
C408        C409   1.399       .  A
C408        H413   1.083       .  S
C409        C410   1.400       .  A
C410        F835   1.358       .  S
F411        C834   1.357       .  S
C415        C416   1.404       .  A
C415        C420   1.400   1_655  A
C415        H422   1.083       .  S
C416        C417   1.405       .  A
C417        C418   1.400   1_655  A
C417        F424   1.357       .  S
C418        C419   1.405       .  A
C418        H423   1.083       .  S
C419        C420   1.407       .  A
C420        F421   1.357       .  S
N425        N426   1.320       .  A
N425        C429   1.343       .  A
N425       Cu433   2.080       .  S
N426        C427   1.344       .  A
N426       Cu432   2.072   1_545  S
C427        C428   1.391       .  A
C427        H430   1.079       .  S
C428        C429   1.392       .  A
C428        C830   1.496       .  S
C429        H431   1.080       .  S
Cu432       N435   2.072       .  S
Cu433       N443   2.079       .  S
Cu434       N436   2.065       .  S
Cu434       N442   2.065       .  S
N435        N436   1.319       .  A
N435        C439   1.344       .  A
N436        C437   1.343       .  A
C437        C438   1.389       .  A
C437        H440   1.081       .  S
C438        C439   1.390       .  A
C438        C823   1.489       .  S
C439        H441   1.080       .  S
N442        N443   1.322   1_565  A
N442        C446   1.342       .  A
N443        C444   1.347       .  A
C444        C445   1.385   1_545  A
C444        H447   1.083       .  S
C445        C446   1.381       .  A
C445        C843   1.473       .  S
C446        H448   1.081       .  S
N449        N450   1.322       .  A
N449        C453   1.344       .  A
N449       Cu457   2.071       .  S
N450        C451   1.346       .  A
N450       Cu456   2.079       .  S
C451        C452   1.386       .  A
C451        H454   1.081       .  S
C452        C453   1.383       .  A
C452        C810   1.479       .  S
C453        H455   1.082       .  S
Cu456       N459   2.078   1_565  S
Cu457       N467   2.071       .  S
Cu458       N460   2.066       .  S
Cu458       N466   2.066       .  S
N459        N460   1.321       .  A
N459        C463   1.345       .  A
N460        C461   1.342       .  A
C461        C462   1.387       .  A
C461        H464   1.080       .  S
C462        C463   1.390       .  A
C462        C800   1.487       .  S
C463        H465   1.081       .  S
N466        N467   1.321   1_545  A
N466        C470   1.344       .  A
N467        C468   1.345       .  A
C468        C469   1.383       .  A
C468        H471   1.081       .  S
C469        C470   1.382   1_565  A
C469        C840   1.472       .  S
C470        H472   1.083       .  S
C473        C474   1.418       .  A
C473        C478   1.403       .  A
C473        C820   1.483       .  S
C474        C475   1.403       .  A
C474        C770   1.485       .  S
C475        C476   1.401       .  A
C475        H480   1.086       .  S
C476        C477   1.413       .  A
C476        C790   1.478       .  S
C477        C478   1.401       .  A
C477        C780   1.483       .  S
C478        H479   1.086       .  S
N481        N482   1.320       .  A
N481        C485   1.343       .  A
N481       Cu489   2.071       .  S
N482        C483   1.345       .  A
N482       Cu488   2.077       .  S
C483        C484   1.390       .  A
C483        H486   1.081       .  S
C484        C485   1.389       .  A
C484        C783   1.491       .  S
C485        H487   1.080       .  S
Cu488       N491   2.078       .  S
Cu489       N499   2.072       .  S
Cu490       N492   2.073       .  S
Cu490       N498   2.073       .  S
N491        N492   1.323       .  A
N491        C495   1.345       .  A
N492        C493   1.344       .  A
C493        C494   1.384       .  A
C493        H496   1.082       .  S
C494        C495   1.386       .  A
C494        C750   1.479       .  S
C495        H497   1.082       .  S
N498        N499   1.320       .  A
N498        C502   1.345       .  A
N499        C500   1.344       .  A
C500        C501   1.388       .  A
C500        H503   1.081       .  S
C501        C502   1.388       .  A
C501        C760   1.486       .  S
C502        H504   1.082       .  S
N505        N506   1.321       .  A
N505        C509   1.345       .  A
N505       Cu513   2.075       .  S
N506        C507   1.344       .  A
N506       Cu512   2.068       .  S
C507        C508   1.386       .  A
C507        H510   1.081       .  S
C508        C509   1.387       .  A
C508        C730   1.482       .  S
C509        H511   1.081       .  S
Cu512       N515   2.068       .  S
Cu513       N523   2.076       .  S
Cu514       N516   2.080       .  S
Cu514       N522   2.080       .  S
N515        N516   1.320       .  A
N515        C519   1.344       .  A
N516        C517   1.344       .  A
C517        C518   1.392       .  A
C517        H520   1.081       .  S
C518        C519   1.390       .  A
C518        C743   1.494       .  S
C519        H521   1.079       .  S
N522        N523   1.322       .  A
N522        C526   1.345       .  A
N523        C524   1.345       .  A
C524        C525   1.386       .  A
C524        H527   1.081       .  S
C525        C526   1.387       .  A
C525        C763   1.485       .  S
C526        H528   1.082       .  S
C529        C534   1.404       .  A
C529        C713   1.486       .  S
C530        C531   1.403       .  A
C530        C813   1.483       .  S
C531        C532   1.403       .  A
C531        H536   1.085       .  S
C532        C740   1.481       .  S
C533        C534   1.404       .  A
C533        C723   1.486       .  S
C534        H535   1.085       .  S
N537        N538   1.322       .  A
N537        C541   1.344       .  A
N537       Cu545   2.073       .  S
N538        C539   1.345       .  A
N538       Cu544   2.071       .  S
C539        C540   1.384       .  A
C539        H542   1.081       .  S
C540        C541   1.384       .  A
C540        C793   1.476       .  S
C541        H543   1.082       .  S
Cu544       N547   2.070       .  S
Cu545       N555   2.073       .  S
Cu546       N548   2.063       .  S
Cu546       N554   2.063       .  S
N547        N548   1.320       .  A
N547        C551   1.343       .  A
N548        C549   1.342       .  A
C549        C550   1.387       .  A
C549        H552   1.081       .  S
C550        C551   1.388       .  A
C550        C690   1.484       .  S
C551        H553   1.082       .  S
N554        N555   1.321       .  A
N554        C558   1.343       .  A
N555        C556   1.345       .  A
C556        C557   1.385       .  A
C556        H559   1.083       .  S
C557        C558   1.383       .  A
C557        C700   1.477       .  S
C558        H560   1.082       .  S
N561        N562   1.321       .  A
N561        C565   1.345       .  A
N561       Cu569   2.075       .  S
N562        C563   1.345       .  A
N562       Cu568   2.074       .  S
C563        C564   1.386       .  A
C563        H566   1.082       .  S
C564        C565   1.386       .  A
C564        C720   1.482       .  S
C565        H567   1.082       .  S
Cu568       N571   2.073       .  S
Cu569       N579   2.074       .  S
Cu570       N572   2.070       .  S
Cu570       N578   2.070       .  S
N571        N572   1.321       .  A
N571        C575   1.344       .  A
N572        C573   1.343       .  A
C573        C574   1.388       .  A
C573        H576   1.081       .  S
C574        C575   1.388       .  A
C574        C680   1.486       .  S
C575        H577   1.080       .  S
N578        N579   1.321       .  A
N578        C582   1.344       .  A
N579        C580   1.345       .  A
C580        C581   1.385       .  A
C580        H583   1.082       .  S
C581        C582   1.386       .  A
C581        C703   1.481       .  S
C582        H584   1.082       .  S
C585        C586   1.411       .  A
C585        C590   1.399       .  A
C585        C670   1.474       .  S
C586        C587   1.400       .  A
C586        C803   1.474       .  S
C587        C588   1.401       .  A
C587        H592   1.085       .  S
C588        C589   1.411       .  A
C588        C733   1.476       .  S
C589        C590   1.398       .  A
C589        C683   1.473       .  S
C590        H591   1.085       .  S
C593        C598   1.400       .  A
C593        C660   1.481       .  S
C594        C595   1.401       .  A
C594        C833   1.483       .  S
C595        C596   1.402       .  A
C595        H600   1.084       .  S
C596        C753   1.482       .  S
C597        C598   1.404       .  A
C597        C693   1.484       .  S
C598        H599   1.084       .  S
N601        N602   1.322       .  A
N601        C605   1.345       .  A
N601       Cu609   2.074       .  S
N602        C603   1.344       .  A
N602       Cu608   2.075       .  S
C603        C604   1.384       .  A
C603        H606   1.081       .  S
C604        C605   1.385       .  A
C604        C663   1.478       .  S
C605        H607   1.082       .  S
Cu608       N611   2.075   1_545  S
Cu609       N619   2.074       .  S
Cu610       N612   2.072       .  S
Cu610       N618   2.072       .  S
N611        N612   1.322       .  A
N611        C615   1.346       .  A
N612        C613   1.344       .  A
C613        C614   1.384       .  A
C613        H616   1.082       .  S
C614        C615   1.385       .  A
C614        C773   1.478       .  S
C615        H617   1.082       .  S
N618        N619   1.321   1_565  A
N618        C622   1.344       .  A
N619        C620   1.345       .  A
C620        C621   1.387   1_545  A
C620        H623   1.081       .  S
C621        C622   1.387       .  A
C621        C653   1.484       .  S
C622        H624   1.081       .  S
N625        N626   1.322       .  A
N625        C629   1.342       .  A
N625       Cu633   2.067       .  S
N626        C627   1.345       .  A
N626       Cu632   2.073   1_545  S
C627        C628   1.385       .  A
C627        H630   1.082       .  S
C628        C629   1.383       .  A
C628        C673   1.477       .  S
C629        H631   1.082       .  S
Cu632       N635   2.073       .  S
Cu633       N643   2.067       .  S
Cu634       N636   2.073       .  S
Cu634       N642   2.072       .  S
N635        N636   1.321       .  A
N635        C639   1.345       .  A
N636        C637   1.343       .  A
C637        C638   1.387       .  A
C637        H640   1.080       .  S
C638        C639   1.388       .  A
C638        C710   1.486       .  S
C639        H641   1.081       .  S
N642        N643   1.320   1_565  A
N642        C646   1.344       .  A
N643        C644   1.344       .  A
C644        C645   1.388   1_545  A
C644        H647   1.081       .  S
C645        C646   1.389       .  A
C645        C650   1.486       .  S
C646        H648   1.081       .  S
C649        C650   1.406   1_545  A
C649        C654   1.398   1_655  A
C649        H656   1.082       .  S
C650        C651   1.409       .  A
C651        C652   1.398   1_655  A
C651        F658   1.356       .  S
C652        C653   1.405       .  A
C652        H657   1.083       .  S
C653        C654   1.408   1_565  A
C654        F655   1.356       .  S
C659        C660   1.402       .  A
C659        C664   1.398       .  A
C659        H666   1.083       .  S
C660        C661   1.404       .  A
C661        C662   1.398       .  A
C661        F668   1.357       .  S
C662        C663   1.405       .  A
C662        H667   1.083       .  S
C663        C664   1.408       .  A
C664        F665   1.357       .  S
C669        C670   1.401       .  A
C669        C674   1.397       .  A
C669        H676   1.084       .  S
C670        C671   1.402       .  A
C671        C672   1.396       .  A
C671        F678   1.357       .  S
C672        C673   1.405       .  A
C672        H677   1.083       .  S
C673        C674   1.408       .  A
C674        F675   1.357       .  S
C679        C680   1.408       .  A
C679        C684   1.396       .  A
C679        H686   1.081       .  S
C680        C681   1.412       .  A
C681        C682   1.397       .  A
C681        F688   1.355       .  S
C682        C683   1.398       .  A
C682        H687   1.083       .  S
C683        C684   1.401       .  A
C684        F685   1.358       .  S
C689        C690   1.407       .  A
C689        C694   1.396       .  A
C689        H696   1.082       .  S
C690        C691   1.410       .  A
C691        C692   1.395       .  A
C691        F698   1.356       .  S
C692        C693   1.403       .  A
C692        H697   1.082       .  S
C693        C694   1.405       .  A
C699        C700   1.404       .  A
C699        C704   1.399       .  A
C699        H706   1.083       .  S
C700        C701   1.406       .  A
C701        C702   1.396       .  A
C701        F708   1.357       .  S
C702        C703   1.404       .  A
C702        H707   1.083       .  S
C703        C704   1.408       .  A
C704        F705   1.357       .  S
C709        C710   1.407       .  A
C709        C714   1.399       .  A
C709        H716   1.082       .  S
C710        C711   1.410       .  A
C711        C712   1.397       .  A
C711        F718   1.356       .  S
C712        C713   1.403       .  A
C712        H717   1.083       .  S
C713        C714   1.405       .  A
C714        F715   1.357       .  S
C719        C720   1.405       .  A
C719        C724   1.399       .  A
C719        H726   1.083       .  S
C720        C721   1.408       .  A
C721        C722   1.399       .  A
C721        F728   1.357       .  S
C722        C723   1.404       .  A
C722        H727   1.083       .  S
C723        C724   1.406       .  A
C729        C730   1.406       .  A
C729        C734   1.397       .  A
C729        H736   1.083       .  S
C730        C731   1.410       .  A
C731        C732   1.398       .  A
C731        F738   1.357       .  S
C732        C733   1.401       .  A
C732        H737   1.084       .  S
C733        C734   1.401       .  A
C734        F735   1.357       .  S
C739        C740   1.401       .  A
C739        C744   1.400       .  A
C739        H746   1.084       .  S
C740        C741   1.402       .  A
C741        C742   1.395       .  A
C741        F748   1.357       .  S
C742        C743   1.408       .  A
C742        H747   1.080       .  S
C743        C744   1.415       .  A
C744        F745   1.355       .  S
C749        C750   1.405       .  A
C749        C754   1.398       .  A
C749        H756   1.083       .  S
C750        C751   1.407       .  A
C751        C752   1.397       .  A
C751        F758   1.357       .  S
C752        C753   1.403       .  A
C753        C754   1.405       .  A
C754        F755   1.358       .  S
C759        C760   1.406       .  A
C759        C764   1.399       .  A
C759        H766   1.082       .  S
C760        C761   1.409       .  A
C761        C762   1.399       .  A
C761        F768   1.356       .  S
C762        C763   1.405       .  A
C762        H767   1.083       .  S
C763        C764   1.408       .  A
C764        F765   1.357       .  S
C769        C770   1.403       .  A
C769        C774   1.398       .  A
C769        H776   1.083       .  S
C770        C771   1.406       .  A
C771        C772   1.399       .  A
C771        F778   1.357       .  S
C772        C773   1.404       .  A
C772        H777   1.083       .  S
C773        C774   1.407       .  A
C774        F775   1.357       .  S
C779        C780   1.401       .  A
C779        C784   1.397       .  A
C779        H786   1.084       .  S
C780        C781   1.402       .  A
C781        C782   1.398       .  A
C781        F788   1.357       .  S
C782        C783   1.409       .  A
C782        H787   1.082       .  S
C783        C784   1.413       .  A
C784        F785   1.355       .  S
C789        C790   1.403       .  A
C789        C794   1.399       .  A
C789        H796   1.084       .  S
C790        C791   1.403       .  A
C791        C792   1.396       .  A
C791        F798   1.357       .  S
C792        C793   1.404       .  A
C792        H797   1.083       .  S
C793        C794   1.407       .  A
C794        F795   1.357       .  S
C799        C800   1.409       .  A
C799        C804   1.398       .  A
C799        H806   1.082       .  S
C800        C801   1.413       .  A
C801        C802   1.396       .  A
C801        F808   1.356       .  S
C802        C803   1.399       .  A
C802        H807   1.084       .  S
C803        C804   1.401       .  A
C804        F805   1.357       .  S
C809        C810   1.405       .  A
C809        C814   1.399       .  A
C809        H816   1.083       .  S
C810        C811   1.407       .  A
C811        C812   1.398       .  A
C811        F818   1.357       .  S
C812        C813   1.404       .  A
C813        C814   1.405       .  A
C814        F815   1.357       .  S
C819        C820   1.402       .  A
C819        C824   1.397       .  A
C819        H826   1.083       .  S
C820        C821   1.404       .  A
C821        C822   1.397       .  A
C821        F828   1.357       .  S
C822        C823   1.408       .  A
C822        H827   1.081       .  S
C823        C824   1.412       .  A
C824        F825   1.355       .  S
C829        C830   1.409       .  A
C829        C834   1.396       .  A
C829        H836   1.080       .  S
C830        C831   1.415       .  A
C831        C832   1.400       .  A
C831        F838   1.355       .  S
C832        C833   1.401       .  A
C832        H837   1.084       .  S
C833        C834   1.402       .  A
C839        C840   1.402       .  A
C839        C844   1.396   1_655  A
C839        H846   1.083       .  S
C840        C841   1.406       .  A
C841        C842   1.400   1_655  A
C841        F848   1.357       .  S
C842        C843   1.403       .  A
C842        H847   1.083   1_565  S
C843        C844   1.406       .  A
C844        F845   1.357       .  S
