geometry optimzed in LAMMPS
_audit_creation_date              2020-11-30 
_audit_creation_method            'lammps2cif' 
_symmetry_space_group_name_H-M    'P1' 
_symmetry_Int_Tables_number       1 
_symmetry_cell_setting            triclinic 
loop_ 
_symmetry_equiv_pos_as_xyz 
  x,y,z 
_cell_length_a                    32.98921161 
_cell_length_b                    32.88275486426242 
_cell_length_c                    46.833359726419346 
_cell_angle_alpha                 90.64586051347467 
_cell_angle_beta                  89.71911104551982 
_cell_angle_gamma                 120.13019434532787 
loop_ 
_atom_site_label 
_atom_site_type_symbol 
_atom_site_fract_x 
_atom_site_fract_y 
_atom_site_fract_z 
_atom_site_charge 
Fe1        Fe  0.19309632  0.72951790  0.07915427     1.65800
Fe2        Fe  0.26402684  0.80255654  0.13079177     1.73200
Fe3        Fe  0.17684742  0.81752757  0.10381364     1.54400
O4          O  0.17028243  0.81280872  0.05891260    -0.82600
O5          O  0.22417297  0.79911975  0.16525760    -0.80900
O6          O  0.20036503  0.76860994  0.04396022    -0.85100
O7          O  0.12179112  0.70696642  0.08060523    -0.80000
O8          O  0.23729858  0.88137933  0.09963690    -0.81800
O9          O  0.24757025  0.73369386  0.13821807    -0.84500
C10         C  0.09601252  0.71884060  0.09438550     0.96300
C11         C  0.18289466  0.79450236  0.03906261     1.03700
O12         O  0.21136498  0.78349875  0.10456797    -1.13500
O13         O  0.30864733  0.80766108  0.09855338    -0.75900
O14         O  0.26182939  0.74322141  0.07358707    -0.79400
O15         O  0.11275192  0.75702807  0.10847063    -0.80100
C16         C  0.30264908  0.77526266  0.08115552     0.95200
O17         O  0.18393810  0.68646504  0.11273027    -0.78000
O18         O  0.28787567  0.87386786  0.12730728    -0.83200
C19         C  0.19640896  0.81483060  0.16893149     0.97800
C20         C  0.27514677  0.89889778  0.11385590     1.03700
O21         O  0.17893242  0.82620053  0.14839332    -0.78900
C22         C  0.21429412  0.69293390  0.13139101     1.02000
Fe23       Fe  0.19329232  0.73299257  0.32605970     1.65800
Fe24       Fe  0.26338777  0.80011886  0.38007244     1.73200
Fe25       Fe  0.18041612  0.82187693  0.35390931     1.54400
O26         O  0.17561605  0.82218184  0.30916061    -0.82600
O27         O  0.22204459  0.79350542  0.41431390    -0.80900
O28         O  0.20038780  0.77459751  0.29211569    -0.85100
O29         O  0.12215384  0.71111816  0.32836214    -0.80000
O30         O  0.24238516  0.88473212  0.35171868    -0.81800
O31         O  0.24630870  0.73031659  0.38469271    -0.84500
C32         C  0.09721786  0.72464429  0.34163128     0.96300
C33         C  0.18612914  0.80351054  0.28852770     1.03700
O34         O  0.21220236  0.78505937  0.35330107    -1.13500
O35         O  0.30856010  0.80816582  0.34775959    -0.75900
O36         O  0.26220860  0.74780721  0.31946273    -0.79400
O37         O  0.11513649  0.76273438  0.35598148    -0.80100
C38         C  0.30280687  0.77897250  0.32808274     0.95200
O39         O  0.18373545  0.68614727  0.35769504    -0.78000
O40         O  0.28921611  0.87209912  0.37956841    -0.83200
C41         C  0.19576877  0.81078485  0.41877204     0.97800
C42         C  0.27971068  0.89958139  0.36609922     1.03700
O43         O  0.18075038  0.82594182  0.39881588    -0.78900
C44         C  0.21339346  0.69041088  0.37629843     1.02000
Fe45       Fe  0.26561737  0.46549660  0.15851119     1.65800
Fe46       Fe  0.20030302  0.46313695  0.21463894     1.73200
Fe47       Fe  0.17852520  0.36149951  0.18264477     1.54400
O48         O  0.18064101  0.36012169  0.13758100    -0.82600
O49         O  0.20946834  0.42583125  0.24599303    -0.80900
O50         O  0.22253376  0.43505577  0.12437647    -0.85100
O51         O  0.28680939  0.41519819  0.15686822    -0.80000
O52         O  0.11673550  0.36186245  0.18025967    -0.81800
O53         O  0.27022158  0.51640649  0.21985439    -0.84500
C54         C  0.27498593  0.37720954  0.17012230     0.96300
C55         C  0.19698231  0.39180624  0.11845801     1.03700
O56         O  0.21482065  0.42995460  0.18524439    -1.13500
O57         O  0.19038802  0.50248582  0.18504875    -0.75900
O58         O  0.25130112  0.52048470  0.15662774    -0.79400
O59         O  0.23801236  0.35647900  0.18505489    -0.80100
C60         C  0.21993685  0.52853839  0.16655650     0.95200
O61         O  0.31307760  0.49945981  0.19052695    -0.78000
O62         O  0.12824336  0.41532323  0.21371353    -0.83200
C63         C  0.18921507  0.38156337  0.24848197     0.97800
C64         C  0.10130323  0.38042324  0.19787588     1.03700
O65         O  0.17146544  0.35327151  0.22731010    -0.78900
C66         C  0.30968058  0.52395645  0.21042698     1.02000
Fe67       Fe  0.19405212  0.46197724  0.45828927     1.65800
Fe68       Fe  0.26114823  0.45858664  0.40531182     1.73200
Fe69       Fe  0.17487776  0.35750962  0.43313887     1.54400
O70         O  0.16844655  0.35568304  0.47803966    -0.82600
O71         O  0.21842801  0.42342249  0.37153852    -0.80900
O72         O  0.20508218  0.43084570  0.49245796    -0.85100
O73         O  0.12258380  0.41224448  0.45908413    -0.80000
O74         O  0.23485389  0.35455793  0.43794051    -0.81800
O75         O  0.24653424  0.51304854  0.39982697    -0.84500
C76         C  0.09617791  0.37443326  0.44536044     0.96300
C77         C  0.18636433  0.38726949  0.99755394     1.03700
O78         O  0.20991140  0.42581881  0.43215452    -1.13500
O79         O  0.30762465  0.49635264  0.43729818    -0.75900
O80         O  0.26318556  0.51726693  0.46167585    -0.79400
O81         O  0.11230805  0.35558101  0.42856215    -0.80100
C82         C  0.30332961  0.52441143  0.45415430     0.95200
O83         O  0.18278926  0.49521473  0.42524585    -0.78000
O84         O  0.28263465  0.40859692  0.40712635    -0.83200
C85         C  0.19299014  0.37939877  0.36777977     0.97800
C86         C  0.27035191  0.37177426  0.42175641     1.03700
O87         O  0.17738490  0.35042036  0.38842769    -0.78900
C88         C  0.21413454  0.52118291  0.40751467     1.02000
Fe89       Fe  0.53373465  0.80182401  0.49089844     1.65800
Fe90       Fe  0.53254370  0.72856997  0.04217692     1.73200
Fe91       Fe  0.63574085  0.82174107  0.02045373     1.54400
O92         O  0.64303307  0.83162736  0.47539354    -0.82600
O93         O  0.56344836  0.76629786  0.07858320    -0.80900
O94         O  0.57010076  0.79502460  0.45755682    -0.85100
O95         O  0.58130777  0.87356268  0.49271514    -0.80000
O96         O  0.64405919  0.76375570  0.01612815    -0.81800
O97         O  0.47721299  0.74224103  0.04792009    -0.84500
C98         C  0.61492839  0.89898950  0.00892687     0.96300
C99         C  0.61422798  0.81507083  0.45447197     1.03700
O100        O  0.56751132  0.78357252  0.01818715    -1.13500
O101        O  0.49923585  0.68534121  0.00776148    -0.75900
O102        O  0.47973852  0.73296476  0.48411551    -0.79400
O103        O  0.63422759  0.88357049  0.02555741    -0.80100
C104        C  0.47348746  0.69251463  0.48972937     0.95200
O105        O  0.49546874  0.80754141  0.02389729    -0.78000
O106        O  0.58288107  0.70821229  0.03984902    -0.83200
C107        C  0.60604787  0.79552184  0.08424958     0.97800
C108        C  0.62283863  0.72391863  0.02820426     1.03700
O109        O  0.63689560  0.81704926  0.06504360    -0.78900
C110        C  0.47005617  0.77584569  0.04159850     1.02000
Fe111      Fe  0.53681715  0.80288914  0.24178581     1.65800
Fe112      Fe  0.53611284  0.74089041  0.29883538     1.73200
Fe113      Fe  0.63964164  0.82048338  0.26945329     1.54400
O114        O  0.64415481  0.82154970  0.22463003    -0.82600
O115        O  0.57087813  0.78835941  0.33091601    -0.80900
O116        O  0.57088926  0.79180439  0.20862045    -0.85100
O117        O  0.58541732  0.87477748  0.24218571    -0.80000
O118        O  0.63965790  0.75733950  0.26905546    -0.81800
O119        O  0.48204103  0.75579741  0.30130765    -0.84500
C120        C  0.62407509  0.90196645  0.25471399     0.96300
C121        C  0.61399540  0.80625762  0.20453221     1.03700
O122        O  0.57103152  0.78826039  0.26991276    -1.13500
O123        O  0.49895833  0.69065408  0.26851046    -0.75900
O124        O  0.48318574  0.73253309  0.23788829    -0.79400
O125        O  0.64543751  0.88626054  0.26953639    -0.80100
C126        C  0.47507658  0.69340945  0.24825988     0.95200
O127        O  0.49950368  0.81543239  0.27237055    -0.78000
O128        O  0.58380677  0.71711392  0.30101681    -0.83200
C129        C  0.61484804  0.81152416  0.33481000     0.97800
C130        C  0.61918941  0.72367836  0.28653173     1.03700
O131        O  0.64433897  0.82320078  0.31439583    -0.78900
C132        C  0.47401874  0.78682542  0.29135383     1.02000
Fe133      Fe  0.80408042  0.27004783  0.20189104     1.65800
Fe134      Fe  0.73620644  0.20437919  0.25559770     1.73200
Fe135      Fe  0.82031715  0.18464752  0.22971566     1.54400
O136        O  0.82765438  0.18615139  0.18477888    -0.82600
O137        O  0.78004157  0.21687095  0.28896937    -0.80900
O138        O  0.79476444  0.22641587  0.16825986    -0.85100
O139        O  0.87539419  0.29179346  0.20280534    -0.80000
O140        O  0.75920388  0.12062337  0.22619923    -0.81800
O141        O  0.75138431  0.27404594  0.25928228    -0.84500
C142        C  0.90102859  0.28043028  0.21691017     0.96300
C143        C  0.81448027  0.20220600  0.16427266     1.03700
O144        O  0.78676057  0.21931464  0.22884948    -1.13500
O145        O  0.68969918  0.19211415  0.22319352    -0.75900
O146        O  0.73469654  0.25559593  0.19730251    -0.79400
O147        O  0.88392956  0.24550978  0.23352337    -0.80100
C148        C  0.69444732  0.22287935  0.20529130     0.95200
O149        O  0.81557703  0.31738259  0.23368185    -0.78000
O150        O  0.71391572  0.13229022  0.25669890    -0.83200
C151        C  0.80207463  0.19556202  0.29436554     0.97800
C152        C  0.72410567  0.10510292  0.24278268     1.03700
O153        O  0.81712546  0.17918670  0.27474129    -0.78900
C154        C  0.78545412  0.31371751  0.25180366     1.02000
Fe155      Fe  0.79880263  0.26527556  0.45357565     1.65800
Fe156      Fe  0.73546001  0.20037827  0.01010494     1.73200
Fe157      Fe  0.81546867  0.17894136  0.47937536     1.54400
O158        O  0.81812872  0.17831573  0.43441573    -0.82600
O159        O  0.78162698  0.21011706  0.04180054    -0.80900
O160        O  0.78632970  0.22064124  0.42016806    -0.85100
O161        O  0.86993408  0.28686922  0.45265485    -0.80000
O162        O  0.75299615  0.11620151  0.47752202    -0.81800
O163        O  0.75376481  0.27114338  0.01452957    -0.84500
C164        C  0.89633010  0.27536601  0.46573462     0.96300
C165        C  0.80174835  0.19300974  0.41503650     1.03700
O166        O  0.78350239  0.21539507  0.48099044    -1.13500
O167        O  0.68654618  0.19089834  0.47982557    -0.75900
O168        O  0.72967600  0.25029898  0.45062705    -0.79400
O169        O  0.88009331  0.23877789  0.48097389    -0.80100
C170        C  0.69020413  0.21859233  0.46014536     0.95200
O171        O  0.81218151  0.31433487  0.48472060    -0.78000
O172        O  0.70993899  0.12797259  0.00986827    -0.83200
C173        C  0.80587333  0.19040078  0.04484934     0.97800
C174        C  0.71785441  0.10159164  0.49399011     1.03700
O175        O  0.81689533  0.17255296  0.02399537    -0.78900
C176        C  0.78535332  0.31015030  0.00432747     1.02000
Fe177      Fe  0.73397696  0.53617664  0.03666579     1.65800
Fe178      Fe  0.79544498  0.53743774  0.09432182     1.73200
Fe179      Fe  0.81894817  0.63959329  0.06447033     1.54400
O180        O  0.81902229  0.64344669  0.01966326    -0.82600
O181        O  0.78194039  0.57255190  0.12572966    -0.80900
O182        O  0.77807859  0.56969645  0.00336880    -0.85100
O183        O  0.71186641  0.58595039  0.03660422    -0.80000
O184        O  0.88099253  0.63909654  0.06265980    -0.81800
O185        O  0.72634571  0.48272491  0.09668523    -0.84500
C186        C  0.72418692  0.62503768  0.04934127     0.96300
C187        C  0.80219872  0.61384161  0.49938665     1.03700
O188        O  0.78273058  0.57107445  0.06495920    -1.13500
O189        O  0.80913833  0.50005757  0.06446173    -0.75900
O190        O  0.75177899  0.48314348  0.03308309    -0.79400
O191        O  0.75930514  0.64446637  0.06598024    -0.80100
C192        C  0.78349302  0.47617858  0.04360828     0.95200
O193        O  0.68421280  0.49888093  0.06705602    -0.78000
O194        O  0.86713013  0.58656171  0.09641452    -0.83200
C195        C  0.80410350  0.61665990  0.12966264     0.97800
C196        C  0.89519553  0.62038565  0.08062073     1.03700
O197        O  0.82368990  0.64569308  0.10935309    -0.78900
C198        C  0.68720290  0.47354510  0.08612606     1.02000
Fe199      Fe  0.79897376  0.53905039  0.34124094     1.65800
Fe200      Fe  0.73170734  0.53688798  0.28647154     1.73200
Fe201      Fe  0.81421985  0.64096153  0.31450525     1.54400
O202        O  0.82183788  0.64579901  0.35920586    -0.82600
O203        O  0.77428124  0.57255309  0.25299273    -0.80900
O204        O  0.78852161  0.57212828  0.37500726    -0.85100
O205        O  0.87024038  0.58988697  0.34044005    -0.80000
O206        O  0.75256870  0.64170971  0.31868042    -0.81800
O207        O  0.75057662  0.48537440  0.28071277    -0.84500
C208        C  0.89553647  0.62707682  0.32622741     0.96300
C209        C  0.80758254  0.61597081  0.37935162     1.03700
O210        O  0.78151955  0.57230185  0.31410376    -1.13500
O211        O  0.68479959  0.49782148  0.31767704    -0.75900
O212        O  0.73013748  0.48299206  0.34577471    -0.79400
O213        O  0.87807410  0.64514296  0.31019812    -0.80100
C214        C  0.69001984  0.47379782  0.33671599     0.95200
O215        O  0.81101317  0.50366612  0.30966658    -0.78000
O216        O  0.70640793  0.58386732  0.28866553    -0.83200
C217        C  0.79847923  0.61650028  0.24935144     0.97800
C218        C  0.71577418  0.62031074  0.30354099     1.03700
O219        O  0.81180403  0.64612254  0.26992676    -0.78900
C220        C  0.78312733  0.47892429  0.29002060     1.02000
Fe221      Fe  0.45915831  0.19721241  0.12002735     1.65800
Fe222      Fe  0.46272440  0.26567352  0.17479364     1.73200
Fe223      Fe  0.35858276  0.17779192  0.15107407     1.54400
O224        O  0.35046475  0.16998913  0.10628043    -0.82600
O225        O  0.43304949  0.22416142  0.20944998    -0.80900
O226        O  0.42301006  0.20700853  0.08826476    -0.85100
O227        O  0.41006580  0.12549305  0.12016946    -0.80000
O228        O  0.35380640  0.23762601  0.14829512    -0.81800
O229        O  0.51754942  0.25092294  0.17697137    -0.84500
C230        C  0.37462149  0.09912187  0.13541114     0.96300
C231        C  0.37894836  0.18709579  0.08534635     1.03700
O232        O  0.42660438  0.21341800  0.14875689    -1.13500
O233        O  0.49475122  0.31127162  0.14179465    -0.75900
O234        O  0.51294694  0.26641114  0.11513354    -0.79400
O235        O  0.35851336  0.11560504  0.15395388    -0.80100
C236        C  0.51947401  0.30651148  0.12279211     0.95200
O237        O  0.49759490  0.18706006  0.15036272    -0.78000
O238        O  0.41290826  0.28721535  0.17633723    -0.83200
C239        C  0.38995362  0.19841780  0.21525952     0.97800
C240        C  0.37480619  0.27509904  0.16312639     1.03700
O241        O  0.35810249  0.18124463  0.19607624    -0.78900
C242        C  0.52417670  0.21760168  0.16855239     1.02000
Fe243      Fe  0.46373283  0.19980278  0.37309256     1.65800
Fe244      Fe  0.45962984  0.26429428  0.42784178     1.73200
Fe245      Fe  0.35906082  0.17427619  0.40028223     1.54400
O246        O  0.35581796  0.16952107  0.35523746    -0.82600
O247        O  0.42584883  0.22166568  0.46185776    -0.80900
O248        O  0.43017512  0.21098273  0.34046794    -0.85100
O249        O  0.41634757  0.12797756  0.37066601    -0.80000
O250        O  0.35200511  0.23265166  0.39769369    -0.81800
O251        O  0.51470227  0.25040918  0.43274830    -0.84500
C252        C  0.38119106  0.09932482  0.38526052     0.96300
C253        C  0.38644060  0.19031132  0.33574700     1.03700
O254        O  0.42722463  0.21262377  0.40068201    -1.13500
O255        O  0.49567745  0.31186001  0.39621759    -0.75900
O256        O  0.51761033  0.26956033  0.37050252    -0.79400
O257        O  0.36095765  0.11274850  0.40290510    -0.80100
C258        C  0.52362093  0.30918490  0.37878888     0.95200
O259        O  0.49895192  0.18855948  0.40495507    -0.78000
O260        O  0.40935587  0.28481334  0.42586595    -0.83200
C261        C  0.38259749  0.19272439  0.46558051     0.97800
C262        C  0.37175483  0.27107886  0.41173106     1.03700
O263        O  0.35346464  0.17482508  0.44499660    -0.78900
C264        C  0.52360492  0.21884896  0.42383513     1.02000
C265        C  0.37770808  0.19280907  0.24588733    -0.07100
C266        C  0.39491240  0.23445225  0.26203896    -0.18200
C267        C  0.39148151  0.23375394  0.29168869     0.10100
C268        C  0.37238959  0.19060704  0.30601481    -0.07000
C269        C  0.35171901  0.14846295  0.29000536    -0.18200
C270        C  0.35423356  0.14912243  0.25996252     0.10200
S271        S  0.41528304  0.28942520  0.31037797    -0.33200
S272        S  0.33116869  0.09363259  0.24128162    -0.33200
H273        H  0.36480227  0.10980812  0.21937785     0.28200
H274        H  0.38787608  0.27126869  0.33512430     0.28200
H275        H  0.41288764  0.26810132  0.25150556     0.18800
H276        H  0.33750953  0.11522943  0.30091167     0.18800
C277        C  0.36164094  0.18257406  0.05592847    -0.07100
C278        C  0.35311267  0.14246278  0.04013466    -0.18200
C279        C  0.35433350  0.14289950  0.01015951     0.10100
C280        C  0.36616946  0.18274754  0.49545358    -0.07000
C281        C  0.36919700  0.22306230  0.01152529    -0.18200
C282        C  0.36733704  0.22236604  0.04138480     0.10200
S283        S  0.35848689  0.09341612  0.49153863    -0.33200
S284        S  0.37728616  0.27495772  0.05993734    -0.33200
H285        H  0.35449436  0.25224581  0.08525595     0.28200
H286        H  0.33849388  0.09765402  0.46615729     0.28200
H287        H  0.34946810  0.11205012  0.05120002     0.18800
H288        H  0.37189257  0.25071023  0.50050023     0.18800
C289        C  0.64773276  0.43212104  0.34748144    -0.07100
C290        C  0.62454231  0.43642161  0.37139153    -0.18200
C291        C  0.58422270  0.39738981  0.38224024     0.10100
C292        C  0.56546228  0.35286025  0.36828887    -0.07000
C293        C  0.58925981  0.34913601  0.34428324    -0.18200
C294        C  0.62975906  0.38797736  0.33381622     0.10200
S295        S  0.56058588  0.40691640  0.41473814    -0.33200
S296        S  0.65744408  0.37891108  0.30310183    -0.33200
H297        H  0.66317300  0.41873588  0.28873950     0.28200
H298        H  0.55951509  0.36893135  0.42896420     0.28200
H299        H  0.63853966  0.47028233  0.38205222     0.18800
H300        H  0.57623152  0.31561386  0.33336920     0.18800
C301        C  0.81424473  0.63157459  0.40932012    -0.07100
C302        C  0.77630758  0.63018114  0.42358751    -0.18200
C303        C  0.77413553  0.62929608  0.45338518     0.10100
C304        C  0.81031075  0.62916682  0.46943645    -0.07000
C305        C  0.84973560  0.63362257  0.45522401    -0.18200
C306        C  0.85221369  0.63522136  0.42533500     0.10200
S307        S  0.72228759  0.62402374  0.46968103    -0.33200
S308        S  0.90243487  0.63711946  0.40865273    -0.33200
H309        H  0.90208564  0.66258876  0.38487548     0.28200
H310        H  0.74744559  0.65462791  0.49221892     0.28200
H311        H  0.74673533  0.62652626  0.41143861     0.18800
H312        H  0.87728128  0.63285357  0.46730842     0.18800
C313        C  0.80914461  0.63264623  0.21965107    -0.07100
C314        C  0.77468252  0.63636575  0.20429931    -0.18200
C315        C  0.77495941  0.63678611  0.17435998     0.10100
C316        C  0.81035261  0.63330165  0.15946881    -0.07000
C317        C  0.84682348  0.63346013  0.17487262    -0.18200
C318        C  0.84658733  0.63305398  0.20475973     0.10200
S319        S  0.72692894  0.63709448  0.15635139    -0.33200
S320        S  0.89205198  0.62772496  0.22253419    -0.33200
H321        H  0.88949864  0.64794949  0.24858581     0.28200
H322        H  0.75082500  0.65561576  0.13055773     0.28200
H323        H  0.74547756  0.63543191  0.21563210     0.18800
H324        H  0.87371021  0.63003298  0.16352548     0.18800
C325        C  0.56021440  0.34885594  0.11123183    -0.07100
C326        C  0.60251199  0.34872293  0.10958892    -0.18200
C327        C  0.64390904  0.38855411  0.10142508     0.10100
C328        C  0.64396695  0.43065406  0.09530852    -0.07000
C329        C  0.60129639  0.43058228  0.09639500    -0.18200
C330        C  0.55942521  0.39009574  0.10408844     0.10200
S331        S  0.69461637  0.38200863  0.09754519    -0.33200
S332        S  0.50615090  0.39277225  0.10347193    -0.33200
H333        H  0.47677167  0.34543477  0.09544935     0.28200
H334        H  0.70429445  0.40129630  0.07005517     0.28200
H335        H  0.60346967  0.31718940  0.11493746     0.18800
H336        H  0.60049147  0.46217295  0.09106436     0.18800
C337        C  0.78883206  0.43665987  0.03272678    -0.07100
C338        C  0.79230696  0.40691978  0.05274460    -0.18200
C339        C  0.79239367  0.36600475  0.04422007     0.10100
C340        C  0.78951518  0.35454320  0.01493474    -0.07000
C341        C  0.78795827  0.38665151  0.49541018    -0.18200
C342        C  0.78804289  0.42622006  0.00336284     0.10200
S343        S  0.79650265  0.33013202  0.07163731    -0.33200
S344        S  0.78776774  0.46546695  0.47648138    -0.33200
H345        H  0.81508918  0.50755755  0.49188020     0.28200
H346        H  0.82162084  0.31426271  0.05508795     0.28200
H347        H  0.79374322  0.41496691  0.07534639     0.18800
H348        H  0.78666186  0.37860113  0.47281965     0.18800
C349        C  0.64727473  0.21661667  0.44951101    -0.07100
C350        C  0.64919583  0.25949660  0.44456445    -0.18200
C351        C  0.60935435  0.26111066  0.43675432     0.10100
C352        C  0.56581153  0.21896663  0.43423656    -0.07000
C353        C  0.56380386  0.17588895  0.43897952    -0.18200
C354        C  0.60400954  0.17419657  0.44639269     0.10200
S355        S  0.61731625  0.31781604  0.42815197    -0.33200
S356        S  0.59795922  0.11691620  0.45043947    -0.33200
H357        H  0.64259831  0.12980430  0.43965155     0.28200
H358        H  0.59944427  0.30287709  0.40048557     0.28200
H359        H  0.68210331  0.29224779  0.44688491     0.18800
H360        H  0.53083229  0.14328913  0.43643080     0.18800
C361        C  0.80398236  0.18546377  0.32481154    -0.07100
C362        C  0.76119103  0.16635566  0.33944899    -0.18200
C363        C  0.75890883  0.16309583  0.36901410     0.10100
C364        C  0.80049892  0.17911093  0.38489742    -0.07000
C365        C  0.84301483  0.19394804  0.37027360    -0.18200
C366        C  0.84530067  0.19780330  0.34027914     0.10200
S367        S  0.70198417  0.14189420  0.38508728    -0.33200
S368        S  0.90204929  0.22267442  0.32357989    -0.33200
H369        H  0.89299309  0.24576804  0.30159235     0.28200
H370        H  0.71411867  0.13468046  0.41238591     0.28200
H371        H  0.72909897  0.15579626  0.32770009     0.18800
H372        H  0.87520010  0.20695041  0.38233722     0.18800
C373        C  0.82456731  0.19600891  0.13431197    -0.07100
C374        C  0.79965209  0.15186033  0.12091461    -0.18200
C375        C  0.79815839  0.14790786  0.09095482     0.10100
C376        C  0.82100568  0.18901763  0.07420278    -0.07000
C377        C  0.84924498  0.23237921  0.08775998    -0.18200
C378        C  0.85191922  0.23609624  0.11745606     0.10200
S379        S  0.76213292  0.09036072  0.07549206    -0.33200
S380        S  0.88838936  0.29361063  0.13285449    -0.33200
H381        H  0.90538623  0.27656462  0.15435156     0.28200
H382        H  0.79012503  0.09848592  0.05115999     0.28200
H383        H  0.77869160  0.12091259  0.13365846     0.18800
H384        H  0.86696063  0.26406882  0.07515344     0.18800
C385        C  0.78813506  0.35724016  0.26261017    -0.07100
C386        C  0.79857237  0.39343100  0.24307749    -0.18200
C387        C  0.79761376  0.43393040  0.25127341     0.10100
C388        C  0.78653768  0.43860275  0.27970016    -0.07000
C389        C  0.77779783  0.40338081  0.29948769    -0.18200
C390        C  0.77807536  0.36250153  0.29123331     0.10200
S391        S  0.81081815  0.47815210  0.22466788    -0.33200
S392        S  0.76691624  0.31814209  0.31747022    -0.33200
H393        H  0.76037479  0.34124722  0.34097343     0.28200
H394        H  0.82927486  0.51682612  0.24359484     0.28200
H395        H  0.80631722  0.38955099  0.22098869     0.18800
H396        H  0.76974389  0.40766450  0.32142615     0.18800
C397        C  0.56638767  0.21688706  0.17876702    -0.07100
C398        C  0.60632700  0.26018786  0.18542228    -0.18200
C399        C  0.64833589  0.26307834  0.19360200     0.10100
C400        C  0.65162406  0.22188278  0.19480320    -0.07000
C401        C  0.61183217  0.17846538  0.18812177    -0.18200
C402        C  0.56938258  0.17541122  0.18027650     0.10200
S403        S  0.69537255  0.32009690  0.20413756    -0.33200
S404        S  0.52027590  0.11742013  0.17352750    -0.33200
H405        H  0.48738504  0.12612166  0.18738384     0.28200
H406        H  0.70023842  0.30388396  0.23079675     0.28200
H407        H  0.60495658  0.29240774  0.18427608     0.18800
H408        H  0.61362912  0.14649272  0.18942798     0.18800
C409        C  0.63838493  0.69222405  0.29146273    -0.07100
C410        C  0.65773674  0.69358518  0.31832648    -0.18200
C411        C  0.68001998  0.66764001  0.32369886     0.10100
C412        C  0.68456968  0.64067208  0.30142761    -0.07000
C413        C  0.66257977  0.63716691  0.27513564    -0.18200
C414        C  0.63897698  0.66188379  0.27015071     0.10200
S415        S  0.70102001  0.66987418  0.35950286    -0.33200
S416        S  0.60964869  0.65226283  0.23638968    -0.33200
H417        H  0.57551792  0.66299503  0.24579666     0.28200
H418        H  0.69198126  0.62324235  0.35920927     0.28200
H419        H  0.65602153  0.71551515  0.33514963     0.18800
H420        H  0.66478858  0.61599254  0.25799758     0.18800
C421        C  0.64581096  0.95401333  0.25172238    -0.07100
C422        C  0.67313801  0.98300801  0.27441551    -0.18200
C423        C  0.69792046  0.03207739  0.27217685     0.10100
C424        C  0.69539657  0.05361469  0.24684494    -0.07000
C425        C  0.66708456  0.02512377  0.22445094    -0.18200
C426        C  0.64237234  0.97587026  0.22650413     0.10200
S427        S  0.73433301  0.06526369  0.30181362    -0.33200
S428        S  0.60923862  0.94369146  0.19548806    -0.33200
H429        H  0.62316603  0.90996648  0.19675442     0.28200
H430        H  0.77405797  0.09082265  0.28461065     0.28200
H431        H  0.67618623  0.96730609  0.29391687     0.18800
H432        H  0.66509555  0.04136784  0.20489934     0.18800
C433        C  0.69832868  0.65025822  0.04331289    -0.07100
C434        C  0.64973434  0.62447130  0.03844891    -0.18200
C435        C  0.62427163  0.64701386  0.03211744     0.10100
C436        C  0.64757515  0.69673517  0.03080351    -0.07000
C437        C  0.69630713  0.72222803  0.03477402    -0.18200
C438        C  0.72182245  0.69989327  0.04067448     0.10200
S439        S  0.56257084  0.61023331  0.02502994    -0.33200
S440        S  0.78451613  0.73739669  0.04373261    -0.33200
H441        H  0.79542144  0.70816577  0.02737898     0.28200
H442        H  0.56143836  0.63985198  0.00403343     0.28200
H443        H  0.63142500  0.58646910  0.03955414     0.18800
H444        H  0.71486301  0.76025652  0.03375447     0.18800
C445        C  0.63536277  0.95023332  0.00575242    -0.07100
C446        C  0.65122803  0.97026542  0.47785497    -0.18200
C447        C  0.67521660  0.01874584  0.47327677     0.10100
C448        C  0.68586034  0.05011716  0.49662050    -0.07000
C449        C  0.66772536  0.02995927  0.02426921    -0.18200
C450        C  0.64340441  0.98134494  0.02888037     0.10200
S451        S  0.68931442  0.03841324  0.43704210    -0.33200
S452        S  0.62299103  0.96179886  0.06455747    -0.33200
H453        H  0.58723879  0.91654618  0.05683691     0.28200
H454        H  0.67478251  0.07159138  0.44095666     0.28200
H455        H  0.64443519  0.94668208  0.45984495     0.18800
H456        H  0.67477132  0.05352475  0.04228103     0.18800
C457        C  0.63091611  0.81983436  0.36471789    -0.07100
C458        C  0.62519449  0.78055236  0.37970853    -0.18200
C459        C  0.62549802  0.78019625  0.40955442     0.10100
C460        C  0.63142281  0.81988640  0.42493868    -0.07000
C461        C  0.64128033  0.86069836  0.41000369    -0.18200
C462        C  0.64119234  0.86113419  0.38000829     0.10200
S463        S  0.61320674  0.72641699  0.42683459    -0.33200
S464        S  0.64917010  0.91335665  0.36269306    -0.33200
H465        H  0.66421059  0.90488117  0.33633144     0.28200
H466        H  0.63507917  0.74751960  0.45288368     0.28200
H467        H  0.61694883  0.74859828  0.36809861     0.18800
H468        H  0.64521334  0.89109335  0.42170686     0.18800
C469        C  0.61958060  0.80189491  0.11468097    -0.07100
C470        C  0.60748169  0.76120828  0.13031109    -0.18200
C471        C  0.61211880  0.76292211  0.15997189     0.10100
C472        C  0.62828644  0.80589838  0.17467438    -0.07000
C473        C  0.64549375  0.84736586  0.15886225    -0.18200
C474        C  0.64070752  0.84577357  0.12903281     0.10200
S475        S  0.59532881  0.70890602  0.17812855    -0.33200
S476        S  0.65759222  0.90001632  0.11106043    -0.33200
H477        H  0.61985819  0.88026322  0.09178474     0.28200
H478        H  0.62245789  0.73080891  0.20258020     0.28200
H479        H  0.59281388  0.72749807  0.11938774     0.14000
H480        H  0.65908627  0.88073771  0.16988151     0.18800
C481        C  0.04517626  0.34970053  0.45051788    -0.07100
C482        C  0.02111775  0.37481339  0.45078998    -0.18200
C483        C  0.97257047  0.35203488  0.45600480     0.10100
C484        C  0.94784773  0.30317827  0.46158166    -0.07000
C485        C  0.97254023  0.27868461  0.46202802    -0.18200
C486        C  0.02061507  0.30118178  0.45657784     0.10200
S487        S  0.94340906  0.38614567  0.45665067    -0.33200
S488        S  0.05028938  0.26662278  0.95854700    -0.33200
H489        H  0.01052313  0.22331993  0.46277884     0.28200
H490        H  0.98186636  0.42876628  0.44753995     0.28200
H491        H  0.04044128  0.41220357  0.44674859     0.18800
H492        H  0.95388641  0.24138346  0.46633754     0.18800
C493        C  0.34772791  0.29883726  0.41297900    -0.07100
C494        C  0.29867847  0.27373856  0.41478995    -0.18200
C495        C  0.27290388  0.29672150  0.41749771     0.10100
C496        C  0.29668931  0.34644087  0.41896649    -0.07000
C497        C  0.34576835  0.37180117  0.41654638    -0.18200
C498        C  0.37146971  0.34856332  0.41336232     0.10200
S499        S  0.20949797  0.26174566  0.41748372    -0.33200
S500        S  0.43393248  0.38425711  0.40862015    -0.33200
H501        H  0.43727815  0.35350313  0.38887877     0.28200
H502        H  0.20566821  0.21736705  0.41428252     0.28200
H503        H  0.28044894  0.23576079  0.41436332     0.18800
H504        H  0.36411685  0.40982109  0.41696541     0.18800
C505        C  0.34647840  0.56766638  0.46404031    -0.07100
C506        C  0.38988761  0.56936382  0.46153728    -0.18200
C507        C  0.43219197  0.61025746  0.46814144     0.10100
C508        C  0.43162613  0.65060425  0.47811886    -0.07000
C509        C  0.38811429  0.64818628  0.98152034    -0.18200
C510        C  0.34641160  0.60894088  0.47324002     0.10200
S511        S  0.48567066  0.60935584  0.46190229    -0.33200
S512        S  0.29247500  0.61130057  0.97670190    -0.33200
H513        H  0.31358338  0.65954615  0.98329463     0.28200
H514        H  0.51327009  0.65749211  0.45577022     0.28200
H515        H  0.39112494  0.53878860  0.45387172     0.18800
H516        H  0.38798412  0.67899660  0.98990058     0.18800
C517        C  0.95240644  0.30676865  0.21237848    -0.07100
C518        C  0.97637770  0.35601242  0.20970922    -0.18200
C519        C  0.02489693  0.38146256  0.20441340     0.10100
C520        C  0.05001992  0.35719015  0.20178275    -0.07000
C521        C  0.02586010  0.30814685  0.20415176    -0.18200
C522        C  0.97777479  0.28283308  0.20908254     0.10200
S523        S  0.05224271  0.44422861  0.20022414    -0.33200
S524        S  0.95069872  0.21969833  0.20925627    -0.33200
H525        H  0.91523752  0.21299716  0.19006082     0.28200
H526        H  0.08561775  0.44790201  0.18005463     0.28200
H527        H  0.95720458  0.37468727  0.21160286     0.18800
H528        H  0.04471873  0.28914490  0.20212174     0.18800
C529        C  0.35316941  0.30491834  0.16543161    -0.07100
C530        C  0.34058865  0.31856933  0.14027844    -0.18200
C531        C  0.31604042  0.34306022  0.14115038     0.10100
C532        C  0.30444961  0.35522739  0.16777486    -0.07000
C533        C  0.31799995  0.34253116  0.19292461    -0.18200
C534        C  0.34169063  0.31721142  0.19205393     0.10200
S535        S  0.29754920  0.35449173  0.10760043    -0.33200
S536        S  0.35293570  0.29866664  0.22560895    -0.33200
H537        H  0.34025317  0.25322645  0.21586477     0.28200
H538        H  0.25249909  0.34244478  0.11721943     0.28200
H539        H  0.34869661  0.30883096  0.11978629     0.18800
H540        H  0.30870948  0.35107799  0.21342363     0.18800
C541        C  0.18553283  0.36265940  0.33783950    -0.07100
C542        C  0.22572611  0.37171035  0.32233931    -0.18200
C543        C  0.22607744  0.37211563  0.29249093     0.10100
C544        C  0.18550543  0.36360315  0.27761152    -0.07000
C545        C  0.14394794  0.34997144  0.29293288    -0.18200
C546        C  0.14347868  0.34914018  0.32293915     0.10200
S547        S  0.28059642  0.38840472  0.27457245    -0.33200
S548        S  0.09005166  0.33651368  0.34090041    -0.33200
H549        H  0.09789955  0.31664898  0.36514343     0.28200
H550        H  0.26017216  0.36651889  0.24839604     0.28200
H551        H  0.25814475  0.38203413  0.33361329     0.18800
H552        H  0.11277917  0.34388300  0.28162545     0.18800
C553        C  0.18750061  0.37482603  0.02751674    -0.07100
C554        C  0.14580584  0.35394885  0.04354080    -0.18200
C555        C  0.14696204  0.35625241  0.07361045     0.10100
C556        C  0.19074336  0.37943101  0.08774507    -0.07000
C557        C  0.23197072  0.39713633  0.07152749    -0.18200
C558        C  0.23082552  0.39450685  0.04182345     0.10200
S559        S  0.09195156  0.33317777  0.09228511    -0.33200
S560        S  0.28615421  0.42007630  0.02317810    -0.33200
H561        H  0.26847482  0.39254221  0.99821723     0.28200
H562        H  0.10862156  0.36593644  0.11494502     0.28200
H563        H  0.11242601  0.33948281  0.03262306     0.18800
H564        H  0.26574095  0.41511690  0.08211399     0.18800
C565        C  0.43441703  0.64930398  0.23791524    -0.07100
C566        C  0.40176958  0.61965842  0.25830050    -0.18200
C567        C  0.36127949  0.57796679  0.25023383     0.10100
C568        C  0.35327486  0.56503868  0.22110263    -0.07000
C569        C  0.38646688  0.59426200  0.20079941    -0.18200
C570        C  0.42640052  0.63646480  0.20877771     0.10200
S571        S  0.32182713  0.54262751  0.27813749    -0.33200
S572        S  0.46520562  0.67207228  0.18069991    -0.33200
H573        H  0.50603230  0.69284057  0.19737145     0.28200
H574        H  0.30804599  0.49913844  0.26468280     0.28200
H575        H  0.40750288  0.62943004  0.28065113     0.18800
H576        H  0.38059962  0.58482449  0.17841442     0.18800
C577        C  0.31187406  0.95096491  0.36886717    -0.07100
C578        C  0.33432093  0.96903533  0.39526485    -0.18200
C579        C  0.35898288  0.01745272  0.40091854     0.10100
C580        C  0.36122483  0.04871429  0.37982388    -0.07000
C581        C  0.34145218  0.03107666  0.35288008    -0.18200
C582        C  0.31725680  0.98274277  0.34706164     0.10200
S583        S  0.38655437  0.03697741  0.43537558    -0.33200
S584        S  0.29461155  0.96416713  0.31138121    -0.33200
H585        H  0.30192352  0.92552438  0.31059065     0.28200
H586        H  0.42182936  0.08183457  0.42679879     0.28200
H587        H  0.33134325  0.94524635  0.41202154     0.18800
H588        H  0.34401281  0.05514815  0.33640467     0.18800
C589        C  0.04528289  0.69737521  0.33870116    -0.07100
C590        C  0.02167649  0.72297627  0.33835348    -0.18200
C591        C  0.97330239  0.70099845  0.33374592     0.10100
C592        C  0.94710512  0.65173035  0.32965426    -0.07000
C593        C  0.97030554  0.62579603  0.33023595    -0.18200
C594        C  0.01894568  0.64798260  0.33449112     0.10200
S595        S  0.94542354  0.73638485  0.33481572    -0.33200
S596        S  0.04465110  0.61099045  0.33519249    -0.33200
H597        H  0.07663607  0.63727328  0.35686472     0.28200
H598        H  0.98659853  0.78046115  0.33290411     0.28200
H599        H  0.04139346  0.76073310  0.34139237     0.18800
H600        H  0.95037695  0.58796381  0.32737270     0.18800
C601        C  0.21247262  0.64755772  0.38646540    -0.07100
C602        C  0.25494839  0.64749164  0.38670757    -0.18200
C603        C  0.25634365  0.60635589  0.39151092     0.10100
C604        C  0.21429741  0.56389830  0.39739367    -0.07000
C605        C  0.17188634  0.56437421  0.39783595    -0.18200
C606        C  0.17058209  0.60555137  0.39270858     0.10200
S607        S  0.31328759  0.61139685  0.39090320    -0.33200
S608        S  0.11491577  0.60271809  0.39662466    -0.33200
H609        H  0.13342643  0.64980576  0.40542515     0.28200
H610        H  0.30157180  0.57967076  0.36780833     0.28200
H611        H  0.28742304  0.67958424  0.38216160     0.18800
H612        H  0.13948322  0.53264548  0.40304038     0.18800
C613        C  0.43115898  0.78653645  0.30056496    -0.07100
C614        C  0.38889418  0.74360793  0.29896982    -0.18200
C615        C  0.34627145  0.74009774  0.30657975     0.10100
C616        C  0.34543405  0.78078208  0.31606179    -0.07000
C617        C  0.38788443  0.82409137  0.31680045    -0.18200
C618        C  0.43055264  0.82738013  0.30927617     0.10200
S619        S  0.29513433  0.68224827  0.30446330    -0.33200
S620        S  0.48302568  0.88413077  0.31237845    -0.33200
H621        H  0.51265721  0.86689498  0.32028866     0.28200
H622        H  0.27885213  0.68466941  0.33175668     0.28200
H623        H  0.38910785  0.71220740  0.29171854     0.18800
H624        H  0.38807132  0.85569312  0.32398696     0.18800
C625        C  0.30256999  0.95053302  0.11734122    -0.07100
C626        C  0.27733978  0.97361426  0.12285980    -0.18200
C627        C  0.30001403  0.02161694  0.12934938     0.10100
C628        C  0.34954604  0.04777101  0.13011975    -0.07000
C629        C  0.37506081  0.02503591  0.12381620    -0.18200
C630        C  0.35203312  0.97649039  0.11769822     0.10200
S631        S  0.26479080  0.04907408  0.13489776    -0.33200
S632        S  0.38584101  0.94849880  0.10928424    -0.33200
H633        H  0.43034347  0.98904015  0.11171905     0.28200
H634        H  0.22110535  0.00748486  0.13689429     0.28200
H635        H  0.23946234  0.95360915  0.12259375     0.18800
H636        H  0.41292430  0.04530637  0.12389027     0.18800
C637        C  0.04449658  0.68853562  0.09218490    -0.07100
C638        C  0.02492449  0.67520012  0.06477785    -0.18200
C639        C  0.97645895  0.65107010  0.06046799     0.10100
C640        C  0.94621052  0.64002140  0.08413474    -0.07000
C641        C  0.96555649  0.65151488  0.11176133    -0.18200
C642        C  0.01426913  0.67561066  0.11604143     0.10200
S643        S  0.95550946  0.63550059  0.02422928    -0.33200
S644        S  0.03555724  0.68889106  0.15229896    -0.33200
H645        H  0.07678672  0.68725727  0.14724907     0.28200
H646        H  0.91432064  0.59352695  0.03116607     0.28200
H647        H  0.04763738  0.68497602  0.04637125     0.18800
H648        H  0.94261027  0.64294459  0.13010759     0.18800
C649        C  0.17561726  0.80112203  0.00875100    -0.07100
C650        C  0.20317971  0.84610298  0.49646879    -0.18200
C651        C  0.20652860  0.85148791  0.46664554     0.10100
C652        C  0.18194410  0.81150234  0.44866841    -0.07000
C653        C  0.15220179  0.76781571  0.46093940    -0.18200
C654        C  0.14957556  0.76225292  0.49058359     0.10200
S655        S  0.24689297  0.90906845  0.45305283    -0.33200
S656        S  0.11570258  0.70324274  0.00556914    -0.33200
H657        H  0.09448180  0.67956070  0.97992345     0.28200
H658        H  0.22540357  0.90269059  0.42629973     0.28200
H659        H  0.22193614  0.87615293  0.01005644     0.18800
H660        H  0.13404222  0.73722128  0.44711729     0.18800
C661        C  0.17936107  0.81277211  0.25870010    -0.07100
C662        C  0.21269341  0.85465253  0.24576435    -0.18200
C663        C  0.21537484  0.85848946  0.21588365     0.10100
C664        C  0.18461392  0.81944815  0.19869283    -0.07000
C665        C  0.14889323  0.77924713  0.21171958    -0.18200
C666        C  0.14562340  0.77576837  0.24145053     0.10200
S667        S  0.26147427  0.91224816  0.20085172    -0.33200
S668        S  0.09997849  0.72160201  0.25629586    -0.33200
H669        H  0.09418193  0.74301071  0.28091847     0.28200
H670        H  0.23853200  0.90799765  0.17484216     0.28200
H671        H  0.23874099  0.88317358  0.25883777     0.18800
H672        H  0.12533210  0.74910901  0.19868094     0.18800
C673        C  0.21411890  0.65152818  0.14329126    -0.07100
C674        C  0.25751640  0.65392730  0.14638001    -0.18200
C675        C  0.26042177  0.61423968  0.15319949     0.10100
C676        C  0.21880204  0.57082953  0.15743329    -0.07000
C677        C  0.17530462  0.56887500  0.15564112    -0.18200
C678        C  0.17248651  0.60872695  0.14852245     0.10200
S679        S  0.31778025  0.62052357  0.15702280    -0.33200
S680        S  0.11595650  0.60505183  0.14738348    -0.33200
H681        H  0.08878842  0.55698134  0.15383912     0.28200
H682        H  0.34337760  0.66994252  0.15861860     0.28200
H683        H  0.28940211  0.68672808  0.14226652     0.18800
H684        H  0.14353670  0.53599963  0.15975712     0.18800
C685        C  0.34487465  0.77437069  0.07040842    -0.07100
C686        C  0.38838524  0.81651199  0.07098396    -0.18200
C687        C  0.42996541  0.81772121  0.06304226     0.10100
C688        C  0.42860858  0.77612644  0.05360579    -0.07000
C689        C  0.38548534  0.73398143  0.05312987    -0.18200
C690        C  0.34395434  0.73240893  0.06160144     0.10200
S691        S  0.48383805  0.87303998  0.06657855    -0.33200
S692        S  0.29178202  0.67525186  0.06135544    -0.33200
H693        H  0.27820962  0.68031305  0.08899220     0.28200
H694        H  0.51086924  0.85294850  0.07479067     0.28200
H695        H  0.39028811  0.84890924  0.07810125     0.18800
H696        H  0.38401226  0.70185902  0.04579912     0.18800
Fe697      Fe  0.19231459  0.72861017  0.57907616     1.65800
Fe698      Fe  0.26354941  0.80148721  0.63066461     1.73200
Fe699      Fe  0.17677229  0.81711315  0.60380305     1.54400
O700        O  0.17048080  0.81277981  0.55883097    -0.82600
O701        O  0.22391592  0.79807626  0.66523937    -0.80900
O702        O  0.19961926  0.76773639  0.54389830    -0.85100
O703        O  0.12103419  0.70628840  0.58067989    -0.80000
O704        O  0.23747611  0.88080664  0.59971167    -0.81800
O705        O  0.24709319  0.73261823  0.63785950    -0.84500
C706        C  0.09542825  0.71851126  0.59436078     0.96300
C707        C  0.18292289  0.79429140  0.53898253     1.03700
O708        O  0.21084746  0.78264992  0.60451695    -1.13500
O709        O  0.30789312  0.80671212  0.59826256    -0.75900
O710        O  0.26104454  0.74223793  0.57330708    -0.79400
O711        O  0.11238884  0.75684831  0.60831837    -0.80100
C712        C  0.30188027  0.77446090  0.58074438     0.95200
O713        O  0.18315773  0.68542904  0.61261271    -0.78000
O714        O  0.28763680  0.87282059  0.62744094    -0.83200
C715        C  0.19657044  0.81427761  0.66899369     0.97800
C716        C  0.27525583  0.89809856  0.61398314     1.03700
O717        O  0.17897971  0.82561708  0.64847548    -0.78900
C718        C  0.21379145  0.69187862  0.63106310     1.02000
Fe719      Fe  0.19341013  0.73342268  0.82648328     1.65800
Fe720      Fe  0.26218449  0.79983612  0.88116206     1.73200
Fe721      Fe  0.18014692  0.82221580  0.85411172     1.54400
O722        O  0.17660797  0.82318450  0.80934232    -0.82600
O723        O  0.21974820  0.79261847  0.91485545    -0.80900
O724        O  0.20113660  0.77529533  0.79249325    -0.85100
O725        O  0.12214727  0.71139370  0.82828882    -0.80000
O726        O  0.24229643  0.88498316  0.85258985    -0.81800
O727        O  0.24511865  0.73007227  0.88558343    -0.84500
C728        C  0.09702080  0.72498324  0.84128162     0.96300
C729        C  0.18735320  0.80456860  0.78879551     1.03700
O730        O  0.21177076  0.78523780  0.85384287    -1.13500
O731        O  0.30829699  0.80828784  0.84937627    -0.75900
O732        O  0.26257326  0.74849395  0.82053115    -0.79400
O733        O  0.11473884  0.76318228  0.85551243    -0.80100
C734        C  0.30299075  0.77935200  0.82962444     0.95200
O735        O  0.18320226  0.68621214  0.85805402    -0.78000
O736        O  0.28811635  0.87182950  0.88104191    -0.83200
C737        C  0.19356374  0.81006266  0.91906279     0.97800
C738        C  0.27915675  0.89954450  0.86740544     1.03700
O739        O  0.17922593  0.82565958  0.89898750    -0.78900
C740        C  0.21249396  0.69027819  0.87686580     1.02000
Fe741      Fe  0.26626203  0.46499799  0.65845198     1.65800
Fe742      Fe  0.20161650  0.46306473  0.71488727     1.73200
Fe743      Fe  0.17857965  0.36132726  0.68268869     1.54400
O744        O  0.18041995  0.35988961  0.63761015    -0.82600
O745        O  0.21094467  0.42559942  0.74601901    -0.80900
O746        O  0.22301773  0.43471087  0.62431843    -0.85100
O747        O  0.28683054  0.41411017  0.65683131    -0.80000
O748        O  0.11731368  0.36263921  0.68037340    -0.81800
O749        O  0.27165350  0.51593623  0.71993129    -0.84500
C750        C  0.27456113  0.37593699  0.67003086     0.96300
C751        C  0.19698290  0.39151052  0.61845081     1.03700
O752        O  0.21553980  0.42973168  0.68530305    -1.13500
O753        O  0.19171121  0.50256950  0.68546181    -0.75900
O754        O  0.25216774  0.52028462  0.65663007    -0.79400
O755        O  0.23757250  0.35547404  0.68496319    -0.80100
C756        C  0.22092941  0.52842098  0.66676652     0.95200
O757        O  0.31416940  0.49896760  0.69033620    -0.78000
O758        O  0.12940232  0.41560609  0.71426394    -0.83200
C759        C  0.19011099  0.38132403  0.74854288     0.97800
C760        C  0.10217739  0.38105137  0.69828538     1.03700
O761        O  0.17163543  0.35308607  0.72740778    -0.78900
C762        C  0.31100211  0.52332341  0.71042009     1.02000
Fe763      Fe  0.19306676  0.46150152  0.95822756     1.65800
Fe764      Fe  0.26049062  0.45840664  0.90539447     1.73200
Fe765      Fe  0.17470913  0.35722425  0.93327971     1.54400
O766        O  0.16816588  0.35548236  0.97817405    -0.82600
O767        O  0.21777421  0.42321306  0.87165540    -0.80900
O768        O  0.20425305  0.43069921  0.99242018    -0.85100
O769        O  0.12156270  0.41139551  0.95889325    -0.80000
O770        O  0.23495919  0.35487379  0.93832591    -0.81800
O771        O  0.24580928  0.51288319  0.89996560    -0.84500
C772        C  0.09540798  0.37338815  0.94523824     0.96300
C773        C  0.18665120  0.38730798  0.49751373     1.03700
O774        O  0.20926780  0.42550698  0.93220420    -1.13500
O775        O  0.30677103  0.49601776  0.93740828    -0.75900
O776        O  0.26224384  0.51687579  0.96177408    -0.79400
O777        O  0.11187892  0.35472002  0.92854693    -0.80100
C778        C  0.30243327  0.52399297  0.95430059     0.95200
O779        O  0.18174142  0.49457881  0.92512547    -0.78000
O780        O  0.28222936  0.40856346  0.90719439    -0.83200
C781        C  0.19293389  0.37913432  0.86788417     0.97800
C782        C  0.27031922  0.37202800  0.92204140     1.03700
O783        O  0.17758183  0.35014913  0.88854849    -0.78900
C784        C  0.21326111  0.52084789  0.90758065     1.02000
Fe785      Fe  0.53323732  0.80023055  0.99137110     1.65800
Fe786      Fe  0.53266028  0.72984214  0.54155501     1.73200
Fe787      Fe  0.63607658  0.82295597  0.52012802     1.54400
O788        O  0.64252393  0.83048089  0.97574841    -0.82600
O789        O  0.56335823  0.76726180  0.57811601    -0.80900
O790        O  0.56962293  0.79367835  0.95788210    -0.85100
O791        O  0.58048753  0.87194655  0.99313369    -0.80000
O792        O  0.64418369  0.76492131  0.51573349    -0.81800
O793        O  0.47739195  0.74359514  0.54717423    -0.84500
C794        C  0.61585962  0.90050038  0.50848357     0.96300
C795        C  0.61378680  0.81418511  0.95478923     1.03700
O796        O  0.56783212  0.78500241  0.51775591    -1.13500
O797        O  0.49966841  0.68694222  0.50695155    -0.75900
O798        O  0.47944170  0.73134898  0.98475438    -0.79400
O799        O  0.63489800  0.88491786  0.52519139    -0.80100
C800        C  0.47303391  0.69091302  0.99055809     0.95200
O801        O  0.49584340  0.80911884  0.52335207    -0.78000
O802        O  0.58285097  0.70935304  0.53930383    -0.83200
C803        C  0.60591279  0.79645952  0.58394357     0.97800
C804        C  0.62282992  0.72504171  0.52771624     1.03700
O805        O  0.63693038  0.81810121  0.56481069    -0.78900
C806        C  0.47022176  0.77720577  0.54089002     1.02000
Fe807      Fe  0.53620972  0.80322230  0.74279084     1.65800
Fe808      Fe  0.53636854  0.74093713  0.79952712     1.73200
Fe809      Fe  0.63949555  0.82038072  0.76955123     1.54400
O810        O  0.64313173  0.82098121  0.72465482    -0.82600
O811        O  0.57162296  0.78833999  0.83153000    -0.80900
O812        O  0.56984311  0.79273637  0.70904317    -0.85100
O813        O  0.58474815  0.87518614  0.74327964    -0.80000
O814        O  0.63938782  0.75714536  0.76912249    -0.81800
O815        O  0.48228435  0.75568431  0.80259608    -0.84500
C816        C  0.62400203  0.90226648  0.75523411     0.96300
C817        C  0.61275565  0.80649987  0.70467469     1.03700
O818        O  0.57088680  0.78837366  0.77049137    -1.13500
O819        O  0.49883154  0.69080602  0.76925563    -0.75900
O820        O  0.48271464  0.73268781  0.73881259    -0.79400
O821        O  0.64575509  0.88640131  0.76953528    -0.80100
C822        C  0.47490623  0.69353825  0.74902406     0.95200
O823        O  0.49929476  0.81544614  0.77388795    -0.78000
O824        O  0.58394567  0.71707619  0.80130399    -0.83200
C825        C  0.61564246  0.81187594  0.83513919     0.97800
C826        C  0.61909543  0.72352874  0.78663741     1.03700
O827        O  0.64486165  0.82352457  0.81454422    -0.78900
C828        C  0.47414781  0.78678303  0.79294419     1.02000
Fe829      Fe  0.80511057  0.27100033  0.70237655     1.65800
Fe830      Fe  0.73721128  0.20504028  0.75595600     1.73200
Fe831      Fe  0.82094525  0.18506318  0.72976300     1.54400
O832        O  0.82826487  0.18704897  0.68482922    -0.82600
O833        O  0.78109347  0.21712912  0.78922826    -0.80900
O834        O  0.79543283  0.22755561  0.66860891    -0.85100
O835        O  0.87633064  0.29242675  0.70315883    -0.80000
O836        O  0.75969129  0.12110909  0.72612261    -0.81800
O837        O  0.75271605  0.27480481  0.75985674    -0.84500
C838        C  0.90188050  0.28091983  0.71722615     0.96300
C839        C  0.81505958  0.20330609  0.66445068     1.03700
O840        O  0.78762735  0.21997001  0.72913582    -1.13500
O841        O  0.69075850  0.19325081  0.72362695    -0.75900
O842        O  0.73582759  0.25700877  0.69795910    -0.79400
O843        O  0.88468716  0.24582221  0.73371413    -0.80100
C844        C  0.69556069  0.22421513  0.70586336     0.95200
O845        O  0.81701589  0.31808863  0.73433526    -0.78000
O846        O  0.71464278  0.13280683  0.75680814    -0.83200
C847        C  0.80253802  0.19518716  0.79448156     0.97800
C848        C  0.72469518  0.10557637  0.74280078     1.03700
O849        O  0.81756662  0.17898441  0.77474765    -0.78900
C850        C  0.78688367  0.31445261  0.75242165     1.02000
Fe851      Fe  0.79758887  0.26268736  0.95319140     1.65800
Fe852      Fe  0.73569974  0.20175550  0.50992678     1.73200
Fe853      Fe  0.81428007  0.17653821  0.97923029     1.54400
O854        O  0.81652883  0.17552407  0.93428416    -0.82600
O855        O  0.78139327  0.21131531  0.54191106    -0.80900
O856        O  0.78401231  0.21718469  0.92008440    -0.85100
O857        O  0.86865890  0.28387305  0.95186470    -0.80000
O858        O  0.75150147  0.11408417  0.97766266    -0.81800
O859        O  0.75341902  0.27228489  0.51465709    -0.84500
C860        C  0.89520414  0.27265223  0.96504933     0.96300
C861        C  0.79967719  0.18976251  0.91493544     1.03700
O862        O  0.78265301  0.21331715  0.98089712    -1.13500
O863        O  0.68581849  0.18933271  0.98034373    -0.75900
O864        O  0.72859601  0.24822307  0.95074721    -0.79400
O865        O  0.87911499  0.23624920  0.98046737    -0.80100
C866        C  0.68927146  0.21693394  0.96066914     0.95200
O867        O  0.81186316  0.31248016  0.98402428    -0.78000
O868        O  0.71060257  0.12942813  0.50942959    -0.83200
C869        C  0.80606664  0.19205850  0.54497806     0.97800
C870        C  0.71662201  0.09985879  0.99431991     1.03700
O871        O  0.81766751  0.17471347  0.52412674    -0.78900
C872        C  0.78513377  0.31151724  0.50480444     1.02000
Fe873      Fe  0.73299987  0.53686139  0.53702412     1.65800
Fe874      Fe  0.79471402  0.53870061  0.59468409     1.73200
Fe875      Fe  0.81835437  0.64053784  0.56446633     1.54400
O876        O  0.81826932  0.64400494  0.51967006    -0.82600
O877        O  0.78114233  0.57407076  0.62583638    -0.80900
O878        O  0.77686502  0.57015518  0.50358428    -0.85100
O879        O  0.71102303  0.58667930  0.53683173    -0.80000
O880        O  0.88035420  0.63989777  0.56264450    -0.81800
O881        O  0.72571709  0.48407528  0.59724129    -0.84500
C882        C  0.72360272  0.62596607  0.54937493     0.96300
C883        C  0.80317329  0.61343744  0.99928539     1.03700
O884        O  0.78196128  0.57202751  0.56517093    -1.13500
O885        O  0.80826228  0.50101338  0.56499314    -0.75900
O886        O  0.75083875  0.48390131  0.53359966    -0.79400
O887        O  0.75878811  0.64548375  0.56595344    -0.80100
C888        C  0.78257224  0.47702946  0.54417818     0.95200
O889        O  0.68327846  0.49955779  0.56750633    -0.78000
O890        O  0.86642088  0.58778173  0.59667051    -0.83200
C891        C  0.80344347  0.61817797  0.62968140     0.97800
C892        C  0.89452361  0.62131389  0.58071585     1.03700
O893        O  0.82327293  0.64706942  0.60933744    -0.78900
C894        C  0.68647511  0.47443623  0.58665737     1.02000
Fe895      Fe  0.79900110  0.53920587  0.84130653     1.65800
Fe896      Fe  0.73131790  0.53639880  0.78655269     1.73200
Fe897      Fe  0.81377063  0.64073853  0.81439224     1.54400
O898        O  0.82194278  0.64589456  0.85907438    -0.82600
O899        O  0.77349316  0.57221890  0.75292503    -0.80900
O900        O  0.78848855  0.57231849  0.87500584    -0.85100
O901        O  0.87018114  0.59020902  0.84032028    -0.80000
O902        O  0.75198890  0.64119224  0.81872605    -0.81800
O903        O  0.75071856  0.48528414  0.78075795    -0.84500
C904        C  0.89531234  0.62715800  0.82587654     0.96300
C905        C  0.80777668  0.61618663  0.87928494     1.03700
O906        O  0.78120989  0.57209599  0.81410738    -1.13500
O907        O  0.68462385  0.49705168  0.81782036    -0.75900
O908        O  0.73034515  0.48292504  0.84602056    -0.79400
O909        O  0.87766202  0.64502071  0.80982617    -0.80100
C910        C  0.69011586  0.47333567  0.83695575     0.95200
O911        O  0.81115863  0.50392460  0.80980412    -0.78000
O912        O  0.70567344  0.58309407  0.78886099    -0.83200
C913        C  0.79743063  0.61618945  0.74928140     0.97800
C914        C  0.71510930  0.61964292  0.80365283     1.03700
O915        O  0.81086169  0.64576826  0.76986958    -0.78900
C916        C  0.78341049  0.47910688  0.79013815     1.02000
Fe917      Fe  0.45998076  0.19663563  0.62017200     1.65800
Fe918      Fe  0.46268011  0.26513968  0.67459906     1.73200
Fe919      Fe  0.35901037  0.17644097  0.65104914     1.54400
O920        O  0.35112396  0.16846207  0.60618242    -0.82600
O921        O  0.43356987  0.22367200  0.70932601    -0.80900
O922        O  0.42372767  0.20578554  0.58821371    -0.85100
O923        O  0.41127063  0.12472744  0.62037256    -0.80000
O924        O  0.35337652  0.23575838  0.64811062    -0.81800
O925        O  0.51818553  0.25135189  0.67684546    -0.84500
C926        C  0.37583862  0.09829593  0.63561455     0.96300
C927        C  0.37965126  0.18546193  0.58523241     1.03700
O928        O  0.42697595  0.21260142  0.64870873    -1.13500
O929        O  0.49400001  0.31051124  0.64141451    -0.75900
O930        O  0.51344844  0.26609566  0.61526878    -0.79400
O931        O  0.35966486  0.11469101  0.65415384    -0.80100
C932        C  0.51930208  0.30604713  0.62270154     0.95200
O933        O  0.49844988  0.18709005  0.65073058    -0.78000
O934        O  0.41218101  0.28580063  0.67614091    -0.83200
C935        C  0.39057526  0.19750765  0.71523602     0.97800
C936        C  0.37396259  0.27324628  0.66295152     1.03700
O937        O  0.35859961  0.18006076  0.69611102    -0.78900
C938        C  0.52501563  0.21802123  0.66873492     1.02000
Fe939      Fe  0.46405917  0.19937347  0.87418497     1.65800
Fe940      Fe  0.45945059  0.26437141  0.92843500     1.73200
Fe941      Fe  0.35910588  0.17469244  0.90051321     1.54400
O942        O  0.35659889  0.16951624  0.85543955    -0.82600
O943        O  0.42512997  0.22182241  0.96231706    -0.80900
O944        O  0.43120518  0.21024908  0.84100922    -0.85100
O945        O  0.41653758  0.12762602  0.87197165    -0.80000
O946        O  0.35249092  0.23335184  0.89747776    -0.81800
O947        O  0.51432444  0.25039804  0.93389782    -0.84500
C948        C  0.38108140  0.09925024  0.88645017     0.96300
C949        C  0.38755028  0.18973059  0.83602897     1.03700
O950        O  0.42726969  0.21269306  0.90126880    -1.13500
O951        O  0.49600074  0.31170866  0.89680068    -0.75900
O952        O  0.51813680  0.26908428  0.87156064    -0.79400
O953        O  0.36058047  0.11298196  0.90368357    -0.80100
C954        C  0.52410323  0.30881386  0.87959675     0.95200
O955        O  0.49847013  0.18816571  0.90652078    -0.78000
O956        O  0.40931446  0.28501573  0.92612706    -0.83200
C957        C  0.38170560  0.19347083  0.96588647     0.97800
C958        C  0.37197503  0.27155375  0.91177209     1.03700
O959        O  0.35281472  0.17570697  0.94517575    -0.78900
C960        C  0.52305981  0.21857377  0.92534304     1.02000
C961        C  0.37864118  0.19180037  0.74593345    -0.07100
C962        C  0.39571409  0.23343356  0.76207514    -0.18200
C963        C  0.39272656  0.23284416  0.79174363     0.10100
C964        C  0.37394923  0.18977496  0.80613550    -0.07000
C965        C  0.35365468  0.14759343  0.79015932    -0.18200
C966        C  0.35589489  0.14814702  0.76009741     0.10200
S967        S  0.41661879  0.28859899  0.81034197    -0.33200
S968        S  0.33336748  0.09263951  0.74149384    -0.33200
H969        H  0.36631564  0.10919544  0.71920946     0.28200
H970        H  0.38919691  0.27061700  0.83509680     0.28200
H971        H  0.41331750  0.26711003  0.75148070     0.18800
H972        H  0.33979722  0.11438024  0.80112381     0.18800
C973        C  0.36245199  0.18003320  0.55570020    -0.07100
C974        C  0.35790056  0.14150563  0.53977550    -0.18200
C975        C  0.35943715  0.14232461  0.50982550     0.10100
C976        C  0.36492506  0.18453073  0.99571197    -0.07000
C977        C  0.36671678  0.21951458  0.51135641    -0.18200
C978        C  0.36461588  0.21841281  0.54124053     0.10200
S979        S  0.34809549  0.09157964  0.99192960    -0.33200
S980        S  0.36974554  0.26902395  0.55993699    -0.33200
H981        H  0.34752809  0.24492542  0.58503621     0.28200
H982        H  0.32775679  0.09711328  0.96709800     0.28200
H983        H  0.35709975  0.11227237  0.55076830     0.18800
H984        H  0.37715594  0.25510283  0.00060975     0.18800
C985        C  0.64802563  0.43161605  0.84790588    -0.07100
C986        C  0.62470182  0.43611558  0.87168572    -0.18200
C987        C  0.58453460  0.39710129  0.88269967     0.10100
C988        C  0.56602471  0.35237591  0.86903781    -0.07000
C989        C  0.59002185  0.34840808  0.84521116    -0.18200
C990        C  0.63039563  0.38724310  0.83458782     0.10200
S991        S  0.56074890  0.40696889  0.91502373    -0.33200
S992        S  0.65831359  0.37786367  0.80411012    -0.33200
H993        H  0.66413931  0.41750384  0.78947800     0.28200
H994        H  0.55958062  0.36913541  0.92949590     0.28200
H995        H  0.63845366  0.47009814  0.88210101     0.18800
H996        H  0.57722437  0.31476353  0.83454501     0.18800
C997        C  0.81460574  0.63190343  0.90923706    -0.07100
C998        C  0.77633880  0.62950395  0.92366139    -0.18200
C999        C  0.77428627  0.62829191  0.95344825     0.10100
C1000       C  0.81098122  0.62898139  0.96936726    -0.07000
C1001       C  0.85072904  0.63448305  0.95501967    -0.18200
C1002       C  0.85302873  0.63629691  0.92511336     0.10200
S1003       S  0.72191644  0.62145400  0.96988735    -0.33200
S1004       S  0.90362776  0.63928980  0.90824400    -0.33200
H1005       H  0.90231710  0.66409932  0.88439618     0.28200
H1006       H  0.74682274  0.65286410  0.99216020     0.28200
H1007       H  0.74643157  0.62521796  0.91163285     0.18800
H1008       H  0.87866103  0.63430419  0.96698465     0.18800
C1009       C  0.80779393  0.63251567  0.71960362    -0.07100
C1010       C  0.77303047  0.63588197  0.70436271    -0.18200
C1011       C  0.77359054  0.63711501  0.67443914     0.10100
C1012       C  0.80958562  0.63485444  0.65945828    -0.07000
C1013       C  0.84632078  0.63543310  0.67479165    -0.18200
C1014       C  0.84576354  0.63412186  0.70466096     0.10200
S1015       S  0.72524341  0.63689720  0.65649053    -0.33200
S1016       S  0.89150863  0.62904057  0.72225219    -0.33200
H1017       H  0.88847467  0.64837254  0.74853470     0.28200
H1018       H  0.74917702  0.65605610  0.63079039     0.28200
H1019       H  0.74347861  0.63411535  0.71573449     0.18800
H1020       H  0.87360584  0.63282957  0.66336938     0.18800
C1021       C  0.56000702  0.34864329  0.61138689    -0.07100
C1022       C  0.60299518  0.34985887  0.61138886    -0.18200
C1023       C  0.64428410  0.39008551  0.60353018     0.10100
C1024       C  0.64343932  0.43125166  0.59591288    -0.07000
C1025       C  0.60006767  0.42981346  0.59551034    -0.18200
C1026       C  0.55838770  0.38894026  0.60300537     0.10200
S1027       S  0.69610148  0.38506509  0.60205859    -0.33200
S1028       S  0.50431383  0.38988371  0.60059890    -0.33200
H1029       H  0.47612178  0.34202665  0.59331736     0.28200
H1030       H  0.70666220  0.40257877  0.57414816     0.28200
H1031       H  0.60455589  0.31905843  0.61781578     0.18800
H1032       H  0.59854532  0.46062466  0.58914174     0.18800
C1033       C  0.78793814  0.43755873  0.53334123    -0.07100
C1034       C  0.79100857  0.40760910  0.55337217    -0.18200
C1035       C  0.79112118  0.36672590  0.54482485     0.10100
C1036       C  0.78883555  0.35562820  0.51551131    -0.07000
C1037       C  0.78828323  0.38537016  0.99482502    -0.18200
C1038       C  0.78758830  0.42740703  0.50397258     0.10200
S1039       S  0.79448714  0.33044753  0.57225548    -0.33200
S1040       S  0.78778016  0.46401064  0.97584449    -0.33200
H1041       H  0.81530310  0.50623360  0.99107905     0.28200
H1042       H  0.81994760  0.31473175  0.55592164     0.28200
H1043       H  0.79214637  0.41548241  0.57596553     0.18800
H1044       H  0.78656356  0.37706600  0.97223491     0.18800
C1045       C  0.64634521  0.21542845  0.95058859    -0.07100
C1046       C  0.64826693  0.25852651  0.94664682    -0.18200
C1047       C  0.60848063  0.26051070  0.93921723     0.10100
C1048       C  0.56500541  0.21843968  0.93601400    -0.07000
C1049       C  0.56296539  0.17516645  0.94003433    -0.18200
C1050       C  0.60310590  0.17315665  0.94709700     0.10200
S1051       S  0.61653443  0.31770434  0.93199710    -0.33200
S1052       S  0.59708103  0.11573781  0.95014311    -0.33200
H1053       H  0.64183393  0.12910165  0.93935395     0.28200
H1054       H  0.59884656  0.30441555  0.90416182     0.28200
H1055       H  0.68118683  0.29116538  0.94941708     0.18800
H1056       H  0.53002915  0.14263397  0.93706667     0.18800
C1057       C  0.80358502  0.18401621  0.82480724    -0.07100
C1058       C  0.76047270  0.16480916  0.83909000    -0.18200
C1059       C  0.75749981  0.16070721  0.86860816     0.10100
C1060       C  0.79870223  0.17602767  0.88478296    -0.07000
C1061       C  0.84141278  0.19063144  0.87045096    -0.18200
C1062       C  0.84440212  0.19529384  0.84051457     0.10200
S1063       S  0.70029139  0.13935659  0.88428372    -0.33200
S1064       S  0.90142701  0.21981565  0.82423442    -0.33200
H1065       H  0.89337559  0.24400738  0.80247628     0.28200
H1066       H  0.71188552  0.13120453  0.91149371     0.28200
H1067       H  0.72871001  0.15485962  0.82711684     0.18800
H1068       H  0.87329491  0.20295946  0.88273741     0.18800
C1069       C  0.82494796  0.19724479  0.63444437    -0.07100
C1070       C  0.79974195  0.15319467  0.62098364    -0.18200
C1071       C  0.79807382  0.14939489  0.59102805     0.10100
C1072       C  0.82103760  0.19057000  0.57434626    -0.07000
C1073       C  0.84947021  0.23384609  0.58794750    -0.18200
C1074       C  0.85234159  0.23739440  0.61764740     0.10200
S1075       S  0.76172766  0.09195835  0.57550730    -0.33200
S1076       S  0.88916333  0.29475920  0.63314880    -0.33200
H1077       H  0.90604112  0.27740902  0.65453693     0.28200
H1078       H  0.78933197  0.10008999  0.55099076     0.28200
H1079       H  0.77871673  0.12221973  0.63369036     0.18800
H1080       H  0.86726105  0.26557868  0.57538852     0.18800
C1081       C  0.78958203  0.35798883  0.76313249    -0.07100
C1082       C  0.79973350  0.39396492  0.74349652    -0.18200
C1083       C  0.79841457  0.43430830  0.75155151     0.10100
C1084       C  0.78718476  0.43897752  0.77993707    -0.07000
C1085       C  0.77890531  0.40406291  0.79984642    -0.18200
C1086       C  0.77959009  0.36336333  0.79173950     0.10200
S1087       S  0.81139644  0.47836272  0.72486472    -0.33200
S1088       S  0.76915143  0.31942030  0.81811973    -0.33200
H1089       H  0.75995601  0.34132034  0.84121317     0.28200
H1090       H  0.82966838  0.51710838  0.74373533     0.28200
H1091       H  0.80749869  0.38998976  0.72137742     0.18800
H1092       H  0.77092583  0.40847339  0.82182987     0.18800
C1093       C  0.56734292  0.21764271  0.67910280    -0.07100
C1094       C  0.60693530  0.26100372  0.68617674    -0.18200
C1095       C  0.64902024  0.26413406  0.69448165     0.10100
C1096       C  0.65273472  0.22315800  0.69535158    -0.07000
C1097       C  0.61331153  0.17972051  0.68827217    -0.18200
C1098       C  0.57079323  0.17639104  0.68034785     0.10200
S1099       S  0.69558227  0.32109287  0.70553456    -0.33200
S1100       S  0.52220101  0.11827313  0.67315464    -0.33200
H1101       H  0.48898351  0.12610033  0.68734885     0.28200
H1102       H  0.70100284  0.30430175  0.73184437     0.28200
H1103       H  0.60523620  0.29305753  0.68526678     0.18800
H1104       H  0.61544663  0.14791756  0.68933110     0.18800
C1105       C  0.63825140  0.69202372  0.79147506    -0.07100
C1106       C  0.65753886  0.69327638  0.81833497    -0.18200
C1107       C  0.67954815  0.66711227  0.82374700     0.10100
C1108       C  0.68391963  0.64000682  0.80150446    -0.07000
C1109       C  0.66198055  0.63658789  0.77519544    -0.18200
C1110       C  0.63863126  0.66155949  0.77016996     0.10200
S1111       S  0.70047065  0.66927584  0.85956647    -0.33200
S1112       S  0.60941298  0.65221345  0.73637620    -0.33200
H1113       H  0.57527328  0.66289214  0.74584737     0.28200
H1114       H  0.69130902  0.62260181  0.85928104     0.28200
H1115       H  0.65598151  0.71531844  0.83515735     0.18800
H1116       H  0.66408200  0.61530762  0.75805953     0.18800
C1117       C  0.64603619  0.95439164  0.75215692    -0.07100
C1118       C  0.67496290  0.98347752  0.77432889    -0.18200
C1119       C  0.70001943  0.03252080  0.77190600     0.10100
C1120       C  0.69605275  0.05404506  0.74696380    -0.07000
C1121       C  0.66625154  0.02548816  0.72508689    -0.18200
C1122       C  0.64141172  0.97622001  0.72726469     0.10200
S1123       S  0.73864254  0.06570351  0.80073808    -0.33200
S1124       S  0.60661334  0.94391923  0.69676216    -0.33200
H1125       H  0.62062093  0.91018235  0.69724182     0.28200
H1126       H  0.77731106  0.09027911  0.78258699     0.28200
H1127       H  0.67909020  0.96782289  0.79357795     0.18800
H1128       H  0.66320964  0.04170092  0.70576831     0.18800
C1129       C  0.69793831  0.65127592  0.54318354    -0.07100
C1130       C  0.64942233  0.62552997  0.53807093    -0.18200
C1131       C  0.62410030  0.64811626  0.53156568     0.10100
C1132       C  0.64747602  0.69783096  0.53032905    -0.07000
C1133       C  0.69615143  0.72329125  0.53449252    -0.18200
C1134       C  0.72154260  0.70092410  0.54058289     0.10200
S1135       S  0.56250312  0.61142621  0.52417294    -0.33200
S1136       S  0.78419187  0.73843207  0.54399510    -0.33200
H1137       H  0.79539596  0.70933766  0.52773242     0.28200
H1138       H  0.56174769  0.64136394  0.50327340     0.28200
H1139       H  0.63104812  0.58750120  0.53912659     0.18800
H1140       H  0.71475395  0.76134621  0.53352532     0.18800
C1141       C  0.63670015  0.95179453  0.50527028    -0.07100
C1142       C  0.64905510  0.96863606  0.97825484    -0.18200
C1143       C  0.67289031  0.01708742  0.97364638     0.10100
C1144       C  0.68430526  0.04849068  0.99703768    -0.07000
C1145       C  0.66869093  0.03149431  0.52376127    -0.18200
C1146       C  0.64432905  0.98286945  0.52834747     0.10200
S1147       S  0.68588338  0.03667808  0.93734836    -0.33200
S1148       S  0.62339956  0.96321808  0.56394346    -0.33200
H1149       H  0.58738188  0.91816853  0.55607185     0.28200
H1150       H  0.67233557  0.07050925  0.94179930     0.28200
H1151       H  0.64179607  0.94504216  0.96020543     0.18800
H1152       H  0.67524711  0.05501296  0.54174033     0.18800
C1153       C  0.63211334  0.82126732  0.86497572    -0.07100
C1154       C  0.63025823  0.78354764  0.87989851    -0.18200
C1155       C  0.62980979  0.78272701  0.90978023     0.10100
C1156       C  0.63122182  0.82043329  0.92523129    -0.07000
C1157       C  0.63718441  0.85998687  0.91038741    -0.18200
C1158       C  0.63764532  0.86081060  0.88041803     0.10200
S1159       S  0.62206117  0.73041497  0.92691224    -0.33200
S1160       S  0.64010951  0.91080286  0.86322750    -0.33200
H1161       H  0.65663699  0.90452770  0.83677813     0.28200
H1162       H  0.64220287  0.75217433  0.95316804     0.28200
H1163       H  0.62524953  0.75273626  0.86819736     0.18800
H1164       H  0.63761423  0.88878470  0.92212910     0.18800
C1165       C  0.61907597  0.80269572  0.61449374    -0.07100
C1166       C  0.60677934  0.76192796  0.63012168    -0.18200
C1167       C  0.61092373  0.76343312  0.65984147     0.10100
C1168       C  0.62662735  0.80626826  0.67464545    -0.07000
C1169       C  0.64375917  0.84781842  0.65888994    -0.18200
C1170       C  0.63974380  0.84645254  0.62898726     0.10200
S1171       S  0.59436513  0.70933827  0.67787207    -0.33200
S1172       S  0.65734412  0.90089533  0.61104392    -0.33200
H1173       H  0.62046290  0.88146640  0.59116825     0.28200
H1174       H  0.62094513  0.73101615  0.70253569     0.28200
H1175       H  0.59244512  0.72832806  0.61913385     0.14000
H1176       H  0.65692230  0.88105736  0.66996745     0.18800
C1177       C  0.04429819  0.34821017  0.95029461    -0.07100
C1178       C  0.01985943  0.37294735  0.95066785    -0.18200
C1179       C  0.97123628  0.34973947  0.95572254     0.10100
C1180       C  0.94674207  0.30075751  0.96092193    -0.07000
C1181       C  0.97176252  0.27660725  0.96126791    -0.18200
C1182       C  0.01995923  0.29956602  0.95608890     0.10200
S1183       S  0.94160199  0.38339898  0.95664684    -0.33200
S1184       S  0.05051641  0.26782553  0.45903591    -0.33200
H1185       H  0.01067423  0.22217219  0.96318099     0.28200
H1186       H  0.98071511  0.42715993  0.94986600     0.28200
H1187       H  0.03897131  0.41043400  0.94680069     0.18800
H1188       H  0.95324509  0.23918542  0.96532636     0.18800
C1189       C  0.34793057  0.29932896  0.91312000    -0.07100
C1190       C  0.29883926  0.27422375  0.91447094    -0.18200
C1191       C  0.27302706  0.29714646  0.91734006     0.10100
C1192       C  0.29677782  0.34681685  0.91931593    -0.07000
C1193       C  0.34590558  0.37221590  0.91748820    -0.18200
C1194       C  0.37168988  0.34906384  0.91428822     0.10200
S1195       S  0.20962826  0.26221603  0.91706485    -0.33200
S1196       S  0.43435104  0.38494101  0.91067683    -0.33200
H1197       H  0.43855590  0.35520328  0.89053149     0.28200
H1198       H  0.20587434  0.21829929  0.91161715     0.28200
H1199       H  0.28055491  0.23619468  0.91365762     0.18800
H1200       H  0.36426740  0.41027873  0.91842553     0.18800
C1201       C  0.34566132  0.56705986  0.96432139    -0.07100
C1202       C  0.38897078  0.56855588  0.96162754    -0.18200
C1203       C  0.43135996  0.60906947  0.96852253     0.10100
C1204       C  0.43094120  0.64911651  0.97914727    -0.07000
C1205       C  0.38869475  0.64955469  0.47997377    -0.18200
C1206       C  0.34559637  0.60809036  0.97410129     0.10200
S1207       S  0.48475092  0.60808792  0.96196734    -0.33200
S1208       S  0.29426162  0.61333934  0.47603925    -0.33200
H1209       H  0.27560788  0.58030665  0.49817822     0.28200
H1210       H  0.51257992  0.65634328  0.95618295     0.28200
H1211       H  0.39007310  0.53807709  0.95355166     0.18800
H1212       H  0.38787070  0.68037468  0.48765154     0.18800
C1213       C  0.95327588  0.30733117  0.71278568    -0.07100
C1214       C  0.97730982  0.35664227  0.71050901    -0.18200
C1215       C  0.02585954  0.38217263  0.70530277     0.10100
C1216       C  0.05093090  0.35789234  0.70234996    -0.07000
C1217       C  0.02670596  0.30879817  0.70436145    -0.18200
C1218       C  0.97860901  0.28342300  0.70920249     0.10200
S1219       S  0.05330191  0.44504142  0.70163757    -0.33200
S1220       S  0.95145960  0.22027566  0.70887009    -0.33200
H1221       H  0.91596784  0.21398499  0.68982265     0.28200
H1222       H  0.08677371  0.44912456  0.68141901     0.28200
H1223       H  0.95814583  0.37531940  0.71263820     0.18800
H1224       H  0.04553163  0.28977576  0.70207692     0.18800
C1225       C  0.35181007  0.30263933  0.66522232    -0.07100
C1226       C  0.33747362  0.31460806  0.64010348    -0.18200
C1227       C  0.31301833  0.33918021  0.64101117     0.10100
C1228       C  0.30345624  0.35334404  0.66760072    -0.07000
C1229       C  0.31836880  0.34197670  0.69271104    -0.18200
C1230       C  0.34185235  0.31643422  0.69184095     0.10200
S1231       S  0.29205930  0.34819995  0.60765220    -0.33200
S1232       S  0.35479264  0.29953471  0.72546229    -0.33200
H1233       H  0.34176775  0.25368151  0.71638753     0.28200
H1234       H  0.24798567  0.33756978  0.61836203     0.28200
H1235       H  0.34423808  0.30356722  0.61961102     0.18800
H1236       H  0.31034078  0.35180348  0.71323404     0.18800
C1237       C  0.18607741  0.36244671  0.83793276    -0.07100
C1238       C  0.22672650  0.37259675  0.82258693    -0.18200
C1239       C  0.22734989  0.37303975  0.79274240     0.10100
C1240       C  0.18655288  0.36339004  0.77768043    -0.07000
C1241       C  0.14464818  0.34866780  0.79285077    -0.18200
C1242       C  0.14394113  0.34786230  0.82286679     0.10200
S1243       S  0.28238791  0.39076155  0.77506660    -0.33200
S1244       S  0.08997365  0.33387870  0.84062117    -0.33200
H1245       H  0.09826622  0.31446204  0.86491838     0.28200
H1246       H  0.26269020  0.36897982  0.74873497     0.28200
H1247       H  0.25922681  0.38374606  0.83398580     0.18800
H1248       H  0.11329533  0.34173927  0.78141695     0.18800
C1249       C  0.18706859  0.37445225  0.52748957    -0.07100
C1250       C  0.14540985  0.35535264  0.54351383    -0.18200
C1251       C  0.14659908  0.35761662  0.57358697     0.10100
C1252       C  0.19036545  0.37901420  0.58774391    -0.07000
C1253       C  0.23140547  0.39498204  0.57152715    -0.18200
C1254       C  0.23017883  0.39221127  0.54181055     0.10200
S1255       S  0.09185285  0.33686730  0.59224449    -0.33200
S1256       S  0.28525498  0.41508379  0.52313385    -0.33200
H1257       H  0.26643942  0.38752128  0.49828935     0.28200
H1258       H  0.10976316  0.36929620  0.61504135     0.28200
H1259       H  0.11219799  0.34233657  0.53258210     0.18800
H1260       H  0.26518655  0.41174234  0.58212090     0.18800
C1261       C  0.43468828  0.64923587  0.73844413    -0.07100
C1262       C  0.40228060  0.61887967  0.75868657    -0.18200
C1263       C  0.36237143  0.57681189  0.75043575     0.10100
C1264       C  0.35466076  0.56421645  0.72124768    -0.07000
C1265       C  0.38776718  0.59401376  0.70108752    -0.18200
C1266       C  0.42712743  0.63659164  0.70925622     0.10200
S1267       S  0.32321346  0.54055249  0.77818513    -0.33200
S1268       S  0.46574213  0.67296805  0.68134409    -0.33200
H1269       H  0.50638711  0.69447022  0.69815948     0.28200
H1270       H  0.30981708  0.49749375  0.76428631     0.28200
H1271       H  0.40774355  0.62837636  0.78109784     0.18800
H1272       H  0.38206795  0.58487285  0.67863990     0.18800
C1273       C  0.31146698  0.95084850  0.87036081    -0.07100
C1274       C  0.33290686  0.96884536  0.89702212    -0.18200
C1275       C  0.35765866  0.01728766  0.90264652     0.10100
C1276       C  0.36101917  0.04858484  0.88123580    -0.07000
C1277       C  0.34231869  0.03097169  0.85408561    -0.18200
C1278       C  0.31803384  0.98264767  0.84831597     0.10200
S1279       S  0.38391244  0.03684498  0.93744102    -0.33200
S1280       S  0.29681198  0.96409238  0.81237858    -0.33200
H1281       H  0.30369270  0.92517372  0.81219117     0.28200
H1282       H  0.41995065  0.08139566  0.92896447     0.28200
H1283       H  0.32907116  0.94500246  0.91395816     0.18800
H1284       H  0.34577181  0.05507129  0.83738631     0.18800
C1285       C  0.04508388  0.69762588  0.83824720    -0.07100
C1286       C  0.02137592  0.72313711  0.83793864    -0.18200
C1287       C  0.97294568  0.70104717  0.83355218     0.10100
C1288       C  0.94690388  0.65185857  0.82914209    -0.07000
C1289       C  0.97018761  0.62599314  0.82967871    -0.18200
C1290       C  0.01880645  0.64821963  0.83408809     0.10200
S1291       S  0.94482623  0.73621116  0.83489511    -0.33200
S1292       S  0.04454721  0.61126991  0.83515960    -0.33200
H1293       H  0.07618716  0.63753755  0.85700173     0.28200
H1294       H  0.98334307  0.77764453  0.84568228     0.28200
H1295       H  0.04110350  0.76096607  0.84065272     0.18800
H1296       H  0.95030374  0.58815249  0.82678441     0.18800
C1297       C  0.21158750  0.64739254  0.88690773    -0.07100
C1298       C  0.25403817  0.64727773  0.88693772    -0.18200
C1299       C  0.25544604  0.60613206  0.89168303     0.10100
C1300       C  0.21342187  0.56367674  0.89763351    -0.07000
C1301       C  0.17103942  0.56424246  0.89830416    -0.18200
C1302       C  0.16974459  0.60546425  0.89329007     0.10200
S1303       S  0.31239571  0.61119273  0.89094029    -0.33200
S1304       S  0.11419755  0.60283336  0.89748123    -0.33200
H1305       H  0.13291315  0.64999410  0.90617883     0.28200
H1306       H  0.30058047  0.57948507  0.86782681     0.28200
H1307       H  0.28646941  0.67934887  0.88228957     0.18800
H1308       H  0.13866081  0.53255708  0.90359026     0.18800
C1309       C  0.43146630  0.78647385  0.80255312    -0.07100
C1310       C  0.38892819  0.74402083  0.79999968    -0.18200
C1311       C  0.34637606  0.74067583  0.80760806     0.10100
C1312       C  0.34588011  0.78109348  0.81804719    -0.07000
C1313       C  0.38873992  0.82389899  0.82001508    -0.18200
C1314       C  0.43133526  0.82697560  0.81253297     0.10200
S1315       S  0.29482512  0.68333779  0.80413718    -0.33200
S1316       S  0.48429856  0.88293419  0.81722775    -0.33200
H1317       H  0.51329425  0.86438157  0.82391855     0.28200
H1318       H  0.27812576  0.68408539  0.83160201     0.28200
H1319       H  0.38886105  0.71285084  0.79190608     0.18800
H1320       H  0.38928585  0.85530326  0.82805247     0.18800
C1321       C  0.30309589  0.94975569  0.61745259    -0.07100
C1322       C  0.27818932  0.97343100  0.62200911    -0.18200
C1323       C  0.30110856  0.02145393  0.62845000     0.10100
C1324       C  0.35058145  0.04699476  0.63025000    -0.07000
C1325       C  0.37583980  0.02372194  0.62493619    -0.18200
C1326       C  0.35256168  0.97515998  0.61886385     0.10200
S1327       S  0.26647848  0.04981276  0.63288361    -0.33200
S1328       S  0.38617843  0.94649877  0.61184279    -0.33200
H1329       H  0.43052664  0.98564376  0.61774319     0.28200
H1330       H  0.22205099  0.00949500  0.62946870     0.28200
H1331       H  0.24027263  0.95379272  0.62116370     0.18800
H1332       H  0.41375636  0.04363490  0.62572396     0.18800
C1333       C  0.04384261  0.68844031  0.59221278    -0.07100
C1334       C  0.02419963  0.67478536  0.56481613    -0.18200
C1335       C  0.97568432  0.65108201  0.56054507     0.10100
C1336       C  0.94552356  0.64072602  0.58419554    -0.07000
C1337       C  0.96493716  0.65246835  0.61180217    -0.18200
C1338       C  0.01365696  0.67617769  0.61605856     0.10200
S1339       S  0.95462502  0.63516001  0.52434820    -0.33200
S1340       S  0.03497328  0.68976524  0.65229620    -0.33200
H1341       H  0.07593210  0.68756223  0.64738423     0.28200
H1342       H  0.91314841  0.59357848  0.53144203     0.28200
H1343       H  0.04673550  0.68390935  0.54652016     0.18800
H1344       H  0.94210769  0.64439625  0.63010173     0.18800
C1345       C  0.17646840  0.80149537  0.50860274    -0.07100
C1346       C  0.20105526  0.84576489  0.99649948    -0.18200
C1347       C  0.20356714  0.85095610  0.96667937     0.10100
C1348       C  0.17937725  0.81073140  0.94885114    -0.07000
C1349       C  0.15061097  0.76693701  0.96128602    -0.18200
C1350       C  0.14891240  0.76156258  0.99092334     0.10200
S1351       S  0.24271777  0.90867654  0.95283378    -0.33200
S1352       S  0.11471857  0.70401163  0.50506767    -0.33200
H1353       H  0.09460106  0.68052653  0.47918230     0.28200
H1354       H  0.21970702  0.90193131  0.92659221     0.28200
H1355       H  0.22430091  0.87623547  0.51015517     0.18800
H1356       H  0.13277874  0.73616472  0.94756481     0.18800
C1357       C  0.18128172  0.81430348  0.75893084    -0.07100
C1358       C  0.21661429  0.85473192  0.74572512    -0.18200
C1359       C  0.21899574  0.85817454  0.71582988     0.10100
C1360       C  0.18596625  0.82011989  0.69884485    -0.07000
C1361       C  0.14857646  0.78155253  0.71213583    -0.18200
C1362       C  0.14562814  0.77856070  0.74192612     0.10200
S1363       S  0.26729692  0.90999232  0.70045205    -0.33200
S1364       S  0.09772397  0.72631536  0.75714629    -0.33200
H1365       H  0.09452302  0.74923836  0.78184568     0.28200
H1366       H  0.24417439  0.90760402  0.67481874     0.28200
H1367       H  0.24412346  0.88223395  0.75858695     0.18800
H1368       H  0.12332010  0.75215716  0.69928858     0.18800
C1369       C  0.21401258  0.65057643  0.64272974    -0.07100
C1370       C  0.25747961  0.65293603  0.64499582    -0.18200
C1371       C  0.26066362  0.61371525  0.65225440     0.10100
C1372       C  0.21939748  0.57050965  0.65761996    -0.07000
C1373       C  0.17580693  0.56850420  0.65637904    -0.18200
C1374       C  0.17264741  0.60807039  0.64893282     0.10200
S1375       S  0.31870157  0.62219238  0.65568556    -0.33200
S1376       S  0.11616143  0.60452959  0.64866735    -0.33200
H1377       H  0.08937206  0.55699262  0.65642320     0.28200
H1378       H  0.30915781  0.60108240  0.68266142     0.28200
H1379       H  0.28946649  0.68555417  0.64052079     0.18800
H1380       H  0.14421599  0.53582084  0.66118575     0.18800
C1381       C  0.34420805  0.77410650  0.56969295    -0.07100
C1382       C  0.38730034  0.81671492  0.56976737    -0.18200
C1383       C  0.42913323  0.81857660  0.56169649     0.10100
C1384       C  0.42847523  0.77711254  0.55272571    -0.07000
C1385       C  0.38571811  0.73454021  0.55262407    -0.18200
C1386       C  0.34391824  0.73237345  0.56111766     0.10200
S1387       S  0.48241067  0.87460251  0.56446265    -0.33200
S1388       S  0.29224788  0.67483450  0.56104853    -0.33200
H1389       H  0.27798541  0.68008915  0.58841074     0.28200
H1390       H  0.51017882  0.85564912  0.57326040     0.28200
H1391       H  0.38867790  0.84897939  0.57659345     0.18800
H1392       H  0.38473049  0.70254749  0.54555129     0.18800
loop_ 
_geom_bond_atom_site_label_1 
_geom_bond_atom_site_label_2 
_geom_bond_distance 
_geom_bond_site_symmetry_2 
_ccdc_geom_bond_type 
Fe1          O17   2.046       .  S
Fe1           O7   2.082       .  S
Fe1          O14   2.094       .  S
Fe1           O6   2.040       .  S
Fe1          O12   1.953       .  S
Fe2           O5   2.045       .  S
Fe2           O9   2.080       .  S
Fe2          O13   2.052       .  S
Fe2          O18   2.074       .  S
Fe2          O12   1.957       .  S
Fe3          O21   2.101       .  S
Fe3           O8   2.056       .  S
Fe3          O15   2.064       .  S
Fe3           O4   2.111       .  S
Fe3          O12   1.957       .  S
O4           C11   1.279       .  A
O5           C19   1.268       .  A
O6           C11   1.268       .  A
O7           C10   1.271       .  A
O8           C20   1.270       .  A
O9           C22   1.273       .  A
C10          O15   1.267       .  A
C10         C637   1.480       .  S
C11         C649   1.478       .  S
O13          C16   1.268       .  A
O14          C16   1.273       .  A
C16         C685   1.493       .  S
O17          C22   1.266       .  A
O18          C20   1.270       .  A
C19          O21   1.276       .  A
C19         C664   1.472       .  S
C20         C625   1.477       .  S
C22         C673   1.474       .  S
Fe23         O39   2.056       .  S
Fe23         O29   2.084       .  S
Fe23         O36   2.094       .  S
Fe23         O28   2.044       .  S
Fe23         O34   1.958       .  S
Fe24         O27   2.042       .  S
Fe24         O31   2.084       .  S
Fe24         O35   2.043       .  S
Fe24         O40   2.075       .  S
Fe24         O34   1.959       .  S
Fe25         O43   2.106       .  S
Fe25         O30   2.055       .  S
Fe25         O37   2.056       .  S
Fe25         O26   2.103       .  S
Fe25         O34   1.959       .  S
O26          C33   1.276       .  A
O27          C41   1.268       .  A
O28          C33   1.268       .  A
O29          C32   1.272       .  A
O30          C42   1.267       .  A
O31          C44   1.272       .  A
C32          O37   1.269       .  A
C32         C589   1.488       .  S
C33         C661   1.475       .  S
O35          C38   1.267       .  A
O36          C38   1.275       .  A
C38         C616   1.486       .  S
O39          C44   1.266       .  A
O40          C42   1.270       .  A
C41          O43   1.277       .  A
C41         C652   1.474       .  S
C42         C577   1.481       .  S
C44         C601   1.478       .  S
Fe45         O61   2.044       .  S
Fe45         O51   2.095       .  S
Fe45         O58   2.088       .  S
Fe45         O50   2.034       .  S
Fe45         O56   1.946       .  S
Fe46         O49   2.042       .  S
Fe46         O53   2.095       .  S
Fe46         O57   2.042       .  S
Fe46         O62   2.091       .  S
Fe46         O56   1.949       .  S
Fe47         O65   2.109       .  S
Fe47         O52   2.048       .  S
Fe47         O59   2.054       .  S
Fe47         O48   2.112       .  S
Fe47         O56   1.951       .  S
O48          C55   1.277       .  A
O49          C63   1.267       .  A
O50          C55   1.265       .  A
O51          C54   1.274       .  A
O52          C64   1.268       .  A
O53          C66   1.274       .  A
C54          O59   1.269       .  A
C54         C532   1.477       .  S
C55         C556   1.477       .  S
O57          C60   1.267       .  A
O58          C60   1.275       .  A
C60         C676   1.478       .  S
O61          C66   1.266       .  A
O62          C64   1.273       .  A
C63          O65   1.277       .  A
C63         C544   1.473       .  S
C64         C520   1.477       .  S
C66         C568   1.478       .  S
Fe67         O83   2.044       .  S
Fe67         O73   2.089       .  S
Fe67         O80   2.090       .  S
Fe67         O72   2.039       .  S
Fe67         O78   1.942       .  S
Fe68         O71   2.042       .  S
Fe68         O75   2.094       .  S
Fe68         O79   2.051       .  S
Fe68         O84   2.094       .  S
Fe68         O78   1.944       .  S
Fe69         O87   2.110       .  S
Fe69         O74   2.043       .  S
Fe69         O81   2.045       .  S
Fe69         O70   2.111       .  S
Fe69         O78   1.944       .  S
O70         C773   1.277       .  A
O71          C85   1.268       .  A
O72         C773   1.268       .  A
O73          C76   1.272       .  A
O74          C86   1.266       .  A
O75          C88   1.275       .  A
C76          O81   1.266       .  A
C76         C481   1.476       .  S
C77         O766   1.277       .  A
C77         O768   1.267       .  A
C77         C553   1.472   1_556  S
O79          C82   1.268       .  A
O80          C82   1.272       .  A
C82         C505   1.491       .  S
O83          C88   1.269       .  A
O84          C86   1.274       .  A
C85          O87   1.277       .  A
C85         C541   1.476       .  S
C86         C496   1.480       .  S
C88         C604   1.485       .  S
Fe89         O95   2.077       .  S
Fe89        O102   2.084       .  S
Fe89         O94   2.042       .  S
Fe89        O801   2.050       .  S
Fe89        O796   1.951       .  S
Fe90         O93   2.046       .  S
Fe90         O97   2.103       .  S
Fe90        O101   2.055       .  S
Fe90        O106   2.081       .  S
Fe90        O100   1.950       .  S
Fe91        O109   2.098       .  S
Fe91         O96   2.066       .  S
Fe91        O103   2.070       .  S
Fe91        O788   2.112   1_554  S
Fe91        O100   1.953       .  S
O92        Fe787   2.113       .  S
O92          C99   1.280       .  A
O93         C107   1.269       .  A
O94          C99   1.269       .  A
O95         C794   1.269       .  A
O96         C108   1.272       .  A
O97         C110   1.278       .  A
C98         O103   1.268       .  A
C98         O791   1.268   1_554  A
C98         C445   1.477       .  S
C99         C460   1.472       .  S
O100       Fe785   1.951   1_554  S
O101        C800   1.265   1_554  A
O102        C104   1.270       .  A
C104        O797   1.265       .  A
C104        C508   1.477       .  S
O105       Fe785   2.050   1_554  S
O105        C110   1.270       .  A
O106        C108   1.272       .  A
C107        O109   1.276       .  A
C107        C469   1.476       .  S
C108        C436   1.488       .  S
C110        C688   1.480       .  S
Fe111       O127   2.053       .  S
Fe111       O117   2.086       .  S
Fe111       O124   2.098       .  S
Fe111       O116   2.047       .  S
Fe111       O122   1.953       .  S
Fe112       O115   2.044       .  S
Fe112       O119   2.076       .  S
Fe112       O123   2.044       .  S
Fe112       O128   2.082       .  S
Fe112       O122   1.954       .  S
Fe113       O131   2.109       .  S
Fe113       O118   2.076       .  S
Fe113       O125   2.074       .  S
Fe113       O114   2.103       .  S
Fe113       O122   1.959       .  S
O114        C121   1.275       .  A
O115        C129   1.268       .  A
O116        C121   1.267       .  A
O117        C120   1.273       .  A
O118        C130   1.271       .  A
O119        C132   1.269       .  A
C120        O125   1.274       .  A
C120        C421   1.495       .  S
C121        C472   1.475       .  S
O123        C126   1.269       .  A
O124        C126   1.277       .  A
C126        C565   1.475       .  S
O127        C132   1.265       .  A
O128        C130   1.270       .  A
C129        O131   1.278       .  A
C129        C457   1.473       .  S
C130        C409   1.479       .  S
C132        C613   1.472       .  S
Fe133       O149   2.036       .  S
Fe133       O139   2.088       .  S
Fe133       O146   2.103       .  S
Fe133       O138   2.036       .  S
Fe133       O144   1.946       .  S
Fe134       O137   2.028       .  S
Fe134       O141   2.090       .  S
Fe134       O145   2.051       .  S
Fe134       O150   2.101       .  S
Fe134       O144   1.940       .  S
Fe135       O153   2.116       .  S
Fe135       O140   2.064       .  S
Fe135       O147   2.054       .  S
Fe135       O136   2.116       .  S
Fe135       O144   1.948       .  S
O136        C143   1.279       .  A
O137        C151   1.265       .  A
O138        C143   1.268       .  A
O139        C142   1.273       .  A
O140        C152   1.269       .  A
O141        C154   1.274       .  A
C142        O147   1.268       .  A
C142        C517   1.481       .  S
C143        C373   1.476       .  S
O145        C148   1.269       .  A
O146        C148   1.277       .  A
C148        C400   1.483       .  S
O149        C154   1.263       .  A
O150        C152   1.274       .  A
C151        O153   1.278       .  A
C151        C361   1.476       .  S
C152        C424   1.482       .  S
C154        C385   1.473       .  S
Fe155       O171   2.040       .  S
Fe155       O161   2.083       .  S
Fe155       O168   2.082       .  S
Fe155       O160   2.030       .  S
Fe155       O166   1.950       .  S
Fe156       O159   2.037       .  S
Fe156       O163   2.098       .  S
Fe156       O172   2.089       .  S
Fe156       O863   2.042   1_554  S
Fe156       O862   1.950   1_554  S
Fe157       O162   2.059       .  S
Fe157       O169   2.052       .  S
Fe157       O158   2.107       .  S
Fe157       O871   2.106       .  S
Fe157       O166   1.955       .  S
O158        C165   1.275       .  A
O159        C173   1.267       .  A
O160        C165   1.265       .  A
O161        C164   1.272       .  A
O162        C174   1.269       .  A
O163        C176   1.275       .  A
C164        O169   1.270       .  A
C164        C484   1.484       .  S
C165        C364   1.473       .  S
O166       Fe852   1.951       .  S
O167       Fe852   2.043       .  S
O167        C170   1.265       .  A
O168        C170   1.274       .  A
C170        C349   1.474       .  S
O171        C872   1.265       .  A
O172        C870   1.273   1_554  A
C173        O175   1.276       .  A
C173        C376   1.474       .  S
C174        O868   1.273       .  A
C174        C448   1.485       .  S
O175       Fe853   2.107   1_554  S
C176        O867   1.265   1_554  A
C176        C340   1.476       .  S
Fe177       O193   2.054       .  S
Fe177       O183   2.100       .  S
Fe177       O190   2.106       .  S
Fe177       O182   2.042       .  S
Fe177       O188   1.948       .  S
Fe178       O181   2.041       .  S
Fe178       O185   2.081       .  S
Fe178       O189   2.045       .  S
Fe178       O194   2.092       .  S
Fe178       O188   1.948       .  S
Fe179       O197   2.108       .  S
Fe179       O184   2.056       .  S
Fe179       O191   2.054       .  S
Fe179       O180   2.104       .  S
Fe179       O188   1.950       .  S
O180        C883   1.274   1_554  A
O181        C195   1.266       .  A
O182        C883   1.265   1_554  A
O183        C186   1.278       .  A
O184        C196   1.269       .  A
O185        C198   1.271       .  A
C186        O191   1.270       .  A
C186        C433   1.488       .  S
C187        O876   1.274       .  A
C187        O878   1.265       .  A
C187        C304   1.473       .  S
O189        C192   1.269       .  A
O190        C192   1.280       .  A
C192        C337   1.481       .  S
O193        C198   1.266       .  A
O194        C196   1.273       .  A
C195        O197   1.276       .  A
C195        C316   1.471       .  S
C196        C640   1.478       .  S
C198        C328   1.482       .  S
Fe199       O215   2.029       .  S
Fe199       O205   2.092       .  S
Fe199       O212   2.098       .  S
Fe199       O204   2.034       .  S
Fe199       O210   1.953       .  S
Fe200       O203   2.043       .  S
Fe200       O207   2.092       .  S
Fe200       O211   2.051       .  S
Fe200       O216   2.094       .  S
Fe200       O210   1.949       .  S
Fe201       O219   2.102       .  S
Fe201       O206   2.055       .  S
Fe201       O213   2.050       .  S
Fe201       O202   2.104       .  S
Fe201       O210   1.953       .  S
O202        C209   1.275       .  A
O203        C217   1.265       .  A
O204        C209   1.265       .  A
O205        C208   1.274       .  A
O206        C218   1.269       .  A
O207        C220   1.274       .  A
C208        O213   1.267       .  A
C208        C592   1.481       .  S
C209        C301   1.468       .  S
O211        C214   1.266       .  A
O212        C214   1.274       .  A
C214        C289   1.472       .  S
O215        C220   1.263       .  A
O216        C218   1.276       .  A
C217        O219   1.274       .  A
C217        C313   1.471       .  S
C218        C412   1.487       .  S
C220        C388   1.463       .  S
Fe221       O237   2.047       .  S
Fe221       O227   2.086       .  S
Fe221       O234   2.082       .  S
Fe221       O226   2.038       .  S
Fe221       O232   1.947       .  S
Fe222       O225   2.037       .  S
Fe222       O229   2.098       .  S
Fe222       O233   2.049       .  S
Fe222       O238   2.091       .  S
Fe222       O232   1.942       .  S
Fe223       O241   2.110       .  S
Fe223       O228   2.057       .  S
Fe223       O235   2.050       .  S
Fe223       O224   2.113       .  S
Fe223       O232   1.944       .  S
O224        C231   1.278       .  A
O225        C239   1.267       .  A
O226        C231   1.267       .  A
O227        C230   1.271       .  A
O228        C240   1.269       .  A
O229        C242   1.278       .  A
C230        O235   1.267       .  A
C230        C628   1.479       .  S
C231        C277   1.471       .  S
O233        C236   1.265       .  A
O234        C236   1.272       .  A
C236        C325   1.473       .  S
O237        C242   1.268       .  A
O238        C240   1.273       .  A
C239        O241   1.278       .  A
C239        C265   1.477       .  S
C240        C529   1.477       .  S
C242        C397   1.486       .  S
Fe243       O259   2.043       .  S
Fe243       O249   2.079       .  S
Fe243       O256   2.085       .  S
Fe243       O248   2.033       .  S
Fe243       O254   1.944       .  S
Fe244       O247   2.052       .  S
Fe244       O251   2.098       .  S
Fe244       O255   2.055       .  S
Fe244       O260   2.083       .  S
Fe244       O254   1.946       .  S
Fe245       O263   2.102       .  S
Fe245       O250   2.051       .  S
Fe245       O257   2.060       .  S
Fe245       O246   2.113       .  S
Fe245       O254   1.949       .  S
O246        C253   1.278       .  A
O247        C261   1.269       .  A
O248        C253   1.268       .  A
O249        C252   1.269       .  A
O250        C262   1.270       .  A
O251        C264   1.278       .  A
C252        O257   1.267       .  A
C252        C580   1.470       .  S
C253        C268   1.471       .  S
O255        C258   1.263       .  A
O256        C258   1.272       .  A
C258        C292   1.493       .  S
O259        C264   1.269       .  A
O260        C262   1.273       .  A
C261        O263   1.276       .  A
C261        C280   1.478       .  S
C262        C493   1.480       .  S
C264        C352   1.476       .  S
C265        C266   1.404       .  A
C265        C270   1.413       .  A
C266        C267   1.392       .  A
C266        H275   1.082       .  S
C267        C268   1.407       .  A
C267        S271   1.806       .  S
C268        C269   1.407       .  A
C269        C270   1.409       .  A
C269        H276   1.082       .  S
C270        S272   1.803       .  S
S271        H274   1.407       .  S
S272        H273   1.405       .  S
C277        C278   1.405       .  A
C277        C282   1.408       .  A
C278        C279   1.404       .  A
C278        H287   1.083       .  S
C279        C976   1.411   1_554  A
C279        S979   1.800   1_554  S
C280        C975   1.411       .  A
C280        C977   1.405       .  A
C281        C282   1.399       .  A
C281        C976   1.405   1_554  A
C281        H984   1.083       .  S
C282        S284   1.803       .  S
S283        C975   1.800       .  S
S283        H286   1.404       .  S
S284        H285   1.406       .  S
H288        C977   1.084       .  S
C289        C290   1.399       .  A
C289        C294   1.410       .  A
C290        C291   1.403       .  A
C290        H299   1.084       .  S
C291        C292   1.424       .  A
C291        S295   1.802       .  S
C292        C293   1.407       .  A
C293        C294   1.397       .  A
C293        H300   1.084       .  S
C294        S296   1.801       .  S
S295        H298   1.407       .  S
S296        H297   1.405       .  S
C301        C302   1.396       .  A
C301        C306   1.415       .  A
C302        C303   1.397       .  A
C302        H311   1.084       .  S
C303        C304   1.415       .  A
C303        S307   1.797       .  S
C304        C305   1.399       .  A
C305        C306   1.402       .  A
C305        H312   1.084       .  S
C306        S308   1.801       .  S
S307        H310   1.401       .  S
S308        H309   1.404       .  S
C313        C314   1.405       .  A
C313        C318   1.410       .  A
C314        C315   1.402       .  A
C314        H323   1.085       .  S
C315        C316   1.410       .  A
C315        S319   1.803       .  S
C316        C317   1.404       .  A
C317        C318   1.400       .  A
C317        H324   1.085       .  S
C318        S320   1.803       .  S
S319        H322   1.406       .  S
S320        H321   1.405       .  S
C325        C326   1.399       .  A
C325        C330   1.413       .  A
C326        C327   1.392       .  A
C326        H335   1.085       .  S
C327        C328   1.416       .  A
C327        S331   1.799       .  S
C328        C329   1.407       .  A
C329        C330   1.404       .  A
C329        H336   1.084       .  S
C330        S332   1.804       .  S
S331        H334   1.405       .  S
S332        H333   1.407       .  S
C337        C338   1.408       .  A
C337        C342   1.411       .  A
C338        C339   1.400       .  A
C338        H347   1.084       .  S
C339        C340   1.409       .  A
C339        S343   1.804       .  S
C340       C1037   1.407   1_554  A
C341       C1036   1.407       .  A
C341       C1038   1.400       .  A
C341        H348   1.084       .  S
C342       C1037   1.401   1_554  A
C342       S1040   1.803   1_554  S
S343        H346   1.407       .  S
S344       C1038   1.804       .  S
S344        H345   1.407       .  S
C349        C350   1.401       .  A
C349        C354   1.415       .  A
C350        C351   1.393       .  A
C350        H359   1.084       .  S
C351        C352   1.413       .  A
C351        S355   1.798       .  S
C352        C353   1.405       .  A
C353        C354   1.401       .  A
C353        H360   1.084       .  S
C354        S356   1.804       .  S
S355        H358   1.404       .  S
S356        H357   1.405       .  S
C361        C362   1.403       .  A
C361        C366   1.412       .  A
C362        C363   1.389       .  A
C362        H371   1.085       .  S
C363        C364   1.410       .  A
C363        S367   1.806       .  S
C364        C365   1.409       .  A
C365        C366   1.410       .  A
C365        H372   1.084       .  S
C366        S368   1.802       .  S
S367        H370   1.399       .  S
S368        H369   1.405       .  S
C373        C374   1.401       .  A
C373        C378   1.413       .  A
C374        C375   1.406       .  A
C374        H383   1.083       .  S
C375        C376   1.416       .  A
C375        S379   1.799       .  S
C376        C377   1.399       .  A
C377        C378   1.394       .  A
C377        H384   1.084       .  S
C378        S380   1.799       .  S
S379        H382   1.404       .  S
S380        H381   1.406       .  S
C385        C386   1.408       .  A
C385        C390   1.409       .  A
C386        C387   1.397       .  A
C386        H395   1.086       .  S
C387        C388   1.406       .  A
C387        S391   1.805       .  S
C388        C389   1.403       .  A
C389        C390   1.399       .  A
C389        H396   1.085       .  S
C390        S392   1.808       .  S
S391        H394   1.406       .  S
S392        H393   1.407       .  S
C397        C398   1.404       .  A
C397        C402   1.419       .  A
C398        C399   1.396       .  A
C398        H407   1.085       .  S
C399        C400   1.414       .  A
C399        S403   1.798       .  S
C400        C401   1.404       .  A
C401        C402   1.403       .  A
C401        H408   1.085       .  S
C402        S404   1.803       .  S
S403        H406   1.404       .  S
S404        H405   1.407       .  S
C409        C410   1.404       .  A
C409        C414   1.410       .  A
C410        C411   1.403       .  A
C410        H419   1.082       .  S
C411        C412   1.417       .  A
C411        S415   1.804       .  S
C412        C413   1.406       .  A
C413        C414   1.401       .  A
C413        H420   1.083       .  S
C414        S416   1.798       .  S
S415        H418   1.407       .  S
S416        H417   1.406       .  S
C421        C422   1.405       .  A
C421        C426   1.424       .  A
C422        C423   1.401   1_565  A
C422        H431   1.084       .  S
C423        C424   1.412       .  A
C423        S427   1.796       .  S
C424        C425   1.400       .  A
C425        C426   1.405   1_545  A
C425        H432   1.084       .  S
C426        S428   1.801       .  S
S427        H430   1.404       .  S
S428        H429   1.399       .  S
C433        C434   1.405       .  A
C433        C438   1.419       .  A
C434        C435   1.406       .  A
C434        H443   1.083       .  S
C435        C436   1.417       .  A
C435        S439   1.801       .  S
C436        C437   1.403       .  A
C437        C438   1.397       .  A
C437        H444   1.083       .  S
C438        S440   1.805       .  S
S439        H442   1.405       .  S
S440        H441   1.403       .  S
C445        C450   1.413       .  A
C445       C1142   1.402   1_554  A
C446        C447   1.398   1_565  A
C446       C1141   1.402       .  A
C446        H455   1.084       .  S
C447        C448   1.413       .  A
C447        S451   1.797       .  S
C448       C1145   1.405       .  A
C449        C450   1.402   1_545  A
C449       C1144   1.405   1_554  A
C449        H456   1.083       .  S
C450        S452   1.799       .  S
S451        H454   1.405       .  S
S452        H453   1.402       .  S
C457        C458   1.404       .  A
C457        C462   1.411       .  A
C458        C459   1.398       .  A
C458        H467   1.084       .  S
C459        C460   1.409       .  A
C459        S463   1.804       .  S
C460        C461   1.406       .  A
C461        C462   1.405       .  A
C461        H468   1.084       .  S
C462        S464   1.803       .  S
S463        H466   1.406       .  S
S464        H465   1.405       .  S
C469        C470   1.403       .  A
C469        C474   1.412       .  A
C470        C471   1.396       .  A
C470        H479   1.084       .  S
C471        C472   1.407       .  A
C471        S475   1.796       .  S
C472        C473   1.404       .  A
C473        C474   1.404       .  A
C473        H480   1.080       .  S
C474        S476   1.798       .  S
S475        H478   1.405       .  S
S476        H477   1.404       .  S
C481        C482   1.403       .  A
C481        C486   1.412       .  A
C482        C483   1.408   1_455  A
C482        H491   1.082       .  S
C483        C484   1.416       .  A
C483        S487   1.807       .  S
C484        C485   1.404       .  A
C485        C486   1.396   1_655  A
C485        H492   1.082       .  S
C486       S1184   1.811       .  S
S487        H490   1.407       .  S
S488       C1182   1.811       .  S
S488       H1185   1.406       .  S
H489       S1184   1.406       .  S
C493        C494   1.402       .  A
C493        C498   1.415       .  A
C494        C495   1.397       .  A
C494        H503   1.080       .  S
C495        C496   1.415       .  A
C495        S499   1.812       .  S
C496        C497   1.405       .  A
C497        C498   1.404       .  A
C497        H504   1.081       .  S
C498        S500   1.802       .  S
S499        H502   1.406       .  S
S500        H501   1.407       .  S
C505        C506   1.409       .  A
C505        C510   1.420       .  A
C506        C507   1.401       .  A
C506        H515   1.084       .  S
C507        C508   1.411       .  A
C507        S511   1.802       .  S
C508       C1205   1.402       .  A
C509       C1204   1.402       .  A
C509       C1206   1.402       .  A
C509        H516   1.084       .  S
C510       C1205   1.398       .  A
C510       S1208   1.801       .  S
S511        H514   1.406       .  S
S512       C1206   1.811       .  S
S512        H513   1.407       .  S
C517        C518   1.408       .  A
C517        C522   1.415       .  A
C518        C519   1.407   1_655  A
C518        H527   1.083       .  S
C519        C520   1.414       .  A
C519        S523   1.803       .  S
C520        C521   1.400       .  A
C521        C522   1.392   1_455  A
C521        H528   1.084       .  S
C522        S524   1.802       .  S
S523        H526   1.406       .  S
S524        H525   1.404       .  S
C529        C530   1.402       .  A
C529        C534   1.414       .  A
C530        C531   1.400       .  A
C530        H539   1.082       .  S
C531        C532   1.414       .  A
C531        S535   1.799       .  S
C532        C533   1.402       .  A
C533        C534   1.399       .  A
C533        H540   1.083       .  S
C534        S536   1.798       .  S
S535        H538   1.405       .  S
S536        H537   1.405       .  S
C541        C542   1.405       .  A
C541        C546   1.412       .  A
C542        C543   1.398       .  A
C542        H551   1.084       .  S
C543        C544   1.409       .  A
C543        S547   1.804       .  S
C544        C545   1.406       .  A
C545        C546   1.406       .  A
C545        H552   1.084       .  S
C546        S548   1.801       .  S
S547        H550   1.406       .  S
S548        H549   1.404       .  S
C553        C554   1.407       .  A
C553        C558   1.408       .  A
C554        C555   1.409       .  A
C554        H563   1.084       .  S
C555        C556   1.414       .  A
C555        S559   1.803       .  S
C556        C557   1.404       .  A
C557        C558   1.392       .  A
C557        H564   1.084       .  S
C558        S560   1.806       .  S
S559        H562   1.405       .  S
S560        H561   1.407   1_554  S
C565        C566   1.407       .  A
C565        C570   1.410       .  A
C566        C567   1.400       .  A
C566        H575   1.081       .  S
C567        C568   1.411       .  A
C567        S571   1.803       .  S
C568        C569   1.407       .  A
C569        C570   1.400       .  A
C569        H576   1.080       .  S
C570        S572   1.803       .  S
S571        H574   1.407       .  S
S572        H573   1.402       .  S
C577        C578   1.407       .  A
C577        C582   1.415       .  A
C578        C579   1.400   1_565  A
C578        H587   1.083       .  S
C579        C580   1.409       .  A
C579        S583   1.802       .  S
C580        C581   1.402       .  A
C581        C582   1.399   1_545  A
C581        H588   1.084       .  S
C582        S584   1.804       .  S
S583        H586   1.406       .  S
S584        H585   1.407       .  S
C589        C590   1.405       .  A
C589        C594   1.418       .  A
C590        C591   1.399   1_455  A
C590        H599   1.082       .  S
C591        C592   1.413       .  A
C591        S595   1.810       .  S
C592        C593   1.403       .  A
C593        C594   1.404   1_655  A
C593        H600   1.083       .  S
C594        S596   1.799       .  S
S595        H598   1.407       .  S
S596        H597   1.402       .  S
C601        C602   1.402       .  A
C601        C606   1.411       .  A
C602        C603   1.397       .  A
C602        H611   1.084       .  S
C603        C604   1.418       .  A
C603        S607   1.801       .  S
C604        C605   1.407       .  A
C605        C606   1.400       .  A
C605        H612   1.084       .  S
C606        S608   1.800       .  S
S607        H610   1.408       .  S
S608        H609   1.407       .  S
C613        C614   1.402       .  A
C613        C618   1.409       .  A
C614        C615   1.397       .  A
C614        H623   1.087       .  S
C615        C616   1.418       .  A
C615        S619   1.803       .  S
C616        C617   1.410       .  A
C617        C618   1.400       .  A
C617        H624   1.086       .  S
C618        S620   1.804       .  S
S619        H622   1.401       .  S
S620        H621   1.407       .  S
C625        C626   1.401       .  A
C625        C630   1.412       .  A
C626        C627   1.396   1_565  A
C626        H635   1.081       .  S
C627        C628   1.414       .  A
C627        S631   1.810       .  S
C628        C629   1.407       .  A
C629        C630   1.408   1_545  A
C629        H636   1.081       .  S
C630        S632   1.807       .  S
S631        H634   1.407       .  S
S632        H633   1.407       .  S
C637        C638   1.403       .  A
C637        C642   1.413       .  A
C638        C639   1.397   1_455  A
C638        H647   1.080       .  S
C639        C640   1.411       .  A
C639        S643   1.805       .  S
C640        C641   1.407       .  A
C641        C642   1.404   1_655  A
C641        H648   1.084       .  S
C642        S644   1.804       .  S
S643        H646   1.407       .  S
S644        H645   1.407       .  S
C649       C1346   1.402   1_554  A
C649       C1350   1.413   1_554  A
C650        C651   1.407       .  A
C650       C1345   1.403       .  A
C650       H1355   1.084       .  S
C651        C652   1.417       .  A
C651        S655   1.803       .  S
C652        C653   1.398       .  A
C653        C654   1.399       .  A
C653        H660   1.084       .  S
C654       C1345   1.413       .  A
C654       S1352   1.806       .  S
S655        H658   1.404       .  S
S656       C1350   1.806   1_554  S
S656        H657   1.407   1_554  S
H659       C1346   1.084   1_554  S
C661        C662   1.402       .  A
C661        C666   1.414       .  A
C662        C663   1.405       .  A
C662        H671   1.084       .  S
C663        C664   1.415       .  A
C663        S667   1.803       .  S
C664        C665   1.398       .  A
C665        C666   1.398       .  A
C665        H672   1.085       .  S
C666        S668   1.802       .  S
S667        H670   1.405       .  S
S668        H669   1.406       .  S
C673        C674   1.402       .  A
C673        C678   1.411       .  A
C674        C675   1.396       .  A
C674        H683   1.082       .  S
C675        C676   1.414       .  A
C675        S679   1.807       .  S
C676        C677   1.407       .  A
C677        C678   1.403       .  A
C677        H684   1.081       .  S
C678        S680   1.808       .  S
S679        H682   1.407       .  S
S680        H681   1.407       .  S
C685        C686   1.409       .  A
C685        C690   1.421       .  A
C686        C687   1.401       .  A
C686        H695   1.084       .  S
C687        C688   1.412       .  A
C687        S691   1.801       .  S
C688        C689   1.402       .  A
C689        C690   1.400       .  A
C689        H696   1.085       .  S
C690        S692   1.802       .  S
S691        H694   1.407       .  S
S692        H693   1.403       .  S
Fe697       O713   2.047       .  S
Fe697       O703   2.083       .  S
Fe697       O710   2.096       .  S
Fe697       O702   2.040       .  S
Fe697       O708   1.954       .  S
Fe698       O701   2.045       .  S
Fe698       O705   2.078       .  S
Fe698       O709   2.050       .  S
Fe698       O714   2.072       .  S
Fe698       O708   1.957       .  S
Fe699       O717   2.104       .  S
Fe699       O704   2.056       .  S
Fe699       O711   2.065       .  S
Fe699       O700   2.114       .  S
Fe699       O708   1.957       .  S
O700        C707   1.279       .  A
O701        C715   1.268       .  A
O702        C707   1.268       .  A
O703        C706   1.271       .  A
O704        C716   1.269       .  A
O705        C718   1.272       .  A
C706        O711   1.267       .  A
C706       C1333   1.481       .  S
C707       C1345   1.479       .  S
O709        C712   1.268       .  A
O710        C712   1.274       .  A
C712       C1381   1.492       .  S
O713        C718   1.266       .  A
O714        C716   1.269       .  A
C715        O717   1.277       .  A
C715       C1360   1.473       .  S
C716       C1321   1.478       .  S
C718       C1369   1.473       .  S
Fe719       O735   2.057       .  S
Fe719       O725   2.085       .  S
Fe719       O732   2.095       .  S
Fe719       O724   2.046       .  S
Fe719       O730   1.958       .  S
Fe720       O723   2.039       .  S
Fe720       O727   2.082       .  S
Fe720       O731   2.042       .  S
Fe720       O736   2.074       .  S
Fe720       O730   1.959       .  S
Fe721       O739   2.104       .  S
Fe721       O726   2.055       .  S
Fe721       O733   2.055       .  S
Fe721       O722   2.102       .  S
Fe721       O730   1.960       .  S
O722        C729   1.276       .  A
O723        C737   1.268       .  A
O724        C729   1.268       .  A
O725        C728   1.272       .  A
O726        C738   1.267       .  A
O727        C740   1.271       .  A
C728        O733   1.269       .  A
C728       C1285   1.489       .  S
C729       C1357   1.475       .  S
O731        C734   1.267       .  A
O732        C734   1.275       .  A
C734       C1312   1.487       .  S
O735        C740   1.266       .  A
O736        C738   1.269       .  A
C737        O739   1.277       .  A
C737       C1348   1.473       .  S
C738       C1273   1.481       .  S
C740       C1297   1.478       .  S
Fe741       O757   2.047       .  S
Fe741       O747   2.098       .  S
Fe741       O754   2.093       .  S
Fe741       O746   2.035       .  S
Fe741       O752   1.947       .  S
Fe742       O745   2.041       .  S
Fe742       O749   2.093       .  S
Fe742       O753   2.041       .  S
Fe742       O758   2.093       .  S
Fe742       O752   1.949       .  S
Fe743       O761   2.111       .  S
Fe743       O748   2.047       .  S
Fe743       O755   2.053       .  S
Fe743       O744   2.112       .  S
Fe743       O752   1.950       .  S
O744        C751   1.277       .  A
O745        C759   1.267       .  A
O746        C751   1.265       .  A
O747        C750   1.275       .  A
O748        C760   1.268       .  A
O749        C762   1.274       .  A
C750        O755   1.268       .  A
C750       C1228   1.477       .  S
C751       C1252   1.478       .  S
O753        C756   1.267       .  A
O754        C756   1.276       .  A
C756       C1372   1.478       .  S
O757        C762   1.266       .  A
O758        C760   1.273       .  A
C759        O761   1.277       .  A
C759       C1240   1.473       .  S
C760       C1216   1.477       .  S
C762       C1264   1.479       .  S
Fe763       O779   2.044       .  S
Fe763       O769   2.092       .  S
Fe763       O776   2.092       .  S
Fe763       O768   2.036       .  S
Fe763       O774   1.941       .  S
Fe764       O767   2.041       .  S
Fe764       O771   2.095       .  S
Fe764       O775   2.048       .  S
Fe764       O780   2.096       .  S
Fe764       O774   1.943       .  S
Fe765       O783   2.112       .  S
Fe765       O770   2.042       .  S
Fe765       O777   2.046       .  S
Fe765       O766   2.111       .  S
Fe765       O774   1.943       .  S
O767        C781   1.268       .  A
O769        C772   1.273       .  A
O770        C782   1.265       .  A
O771        C784   1.275       .  A
C772        O777   1.266       .  A
C772       C1177   1.478       .  S
C773       C1249   1.473       .  S
O775        C778   1.268       .  A
O776        C778   1.273       .  A
C778       C1201   1.491       .  S
O779        C784   1.268       .  A
O780        C782   1.274       .  A
C781        O783   1.278       .  A
C781       C1237   1.477       .  S
C782       C1192   1.479       .  S
C784       C1300   1.486       .  S
Fe785       O791   2.075       .  S
Fe785       O798   2.081       .  S
Fe785       O790   2.045       .  S
Fe786       O789   2.047       .  S
Fe786       O793   2.102       .  S
Fe786       O797   2.056       .  S
Fe786       O802   2.079       .  S
Fe786       O796   1.949       .  S
Fe787       O805   2.102       .  S
Fe787       O792   2.064       .  S
Fe787       O799   2.068       .  S
Fe787       O796   1.954       .  S
O788        C795   1.279       .  A
O789        C803   1.270       .  A
O790        C795   1.270       .  A
O792        C804   1.271       .  A
O793        C806   1.278       .  A
C794        O799   1.267       .  A
C794       C1141   1.477       .  S
C795       C1156   1.473       .  S
O798        C800   1.270       .  A
C800       C1204   1.476       .  S
O801        C806   1.270       .  A
O802        C804   1.271       .  A
C803        O805   1.277       .  A
C803       C1165   1.479       .  S
C804       C1132   1.487       .  S
C806       C1384   1.481       .  S
Fe807       O823   2.056       .  S
Fe807       O813   2.088       .  S
Fe807       O820   2.101       .  S
Fe807       O812   2.050       .  S
Fe807       O818   1.954       .  S
Fe808       O811   2.043       .  S
Fe808       O815   2.075       .  S
Fe808       O819   2.044       .  S
Fe808       O824   2.080       .  S
Fe808       O818   1.957       .  S
Fe809       O827   2.112       .  S
Fe809       O814   2.077       .  S
Fe809       O821   2.075       .  S
Fe809       O810   2.105       .  S
Fe809       O818   1.960       .  S
O810        C817   1.275       .  A
O811        C825   1.268       .  A
O812        C817   1.268       .  A
O813        C816   1.273       .  A
O814        C826   1.271       .  A
O815        C828   1.269       .  A
C816        O821   1.274       .  A
C816       C1117   1.497       .  S
C817       C1168   1.478       .  S
O819        C822   1.269       .  A
O820        C822   1.278       .  A
C822       C1261   1.476       .  S
O823        C828   1.265       .  A
O824        C826   1.269       .  A
C825        O827   1.279       .  A
C825       C1153   1.474       .  S
C826       C1105   1.479       .  S
C828       C1309   1.471       .  S
Fe829       O845   2.033       .  S
Fe829       O835   2.087       .  S
Fe829       O842   2.104       .  S
Fe829       O834   2.035       .  S
Fe829       O840   1.946       .  S
Fe830       O833   2.028       .  S
Fe830       O837   2.091       .  S
Fe830       O841   2.050       .  S
Fe830       O846   2.103       .  S
Fe830       O840   1.939       .  S
Fe831       O849   2.116       .  S
Fe831       O836   2.065       .  S
Fe831       O843   2.056       .  S
Fe831       O832   2.115       .  S
Fe831       O840   1.948       .  S
O832        C839   1.279       .  A
O833        C847   1.265       .  A
O834        C839   1.268       .  A
O835        C838   1.272       .  A
O836        C848   1.270       .  A
O837        C850   1.274       .  A
C838        O843   1.268       .  A
C838       C1213   1.481       .  S
C839       C1069   1.475       .  S
O841        C844   1.269       .  A
O842        C844   1.277       .  A
C844       C1096   1.482       .  S
O845        C850   1.263       .  A
O846        C848   1.275       .  A
C847        O849   1.278       .  A
C847       C1057   1.476       .  S
C848       C1120   1.483       .  S
C850       C1081   1.472       .  S
Fe851       O867   2.041       .  S
Fe851       O857   2.085       .  S
Fe851       O864   2.082       .  S
Fe851       O856   2.031       .  S
Fe851       O862   1.949       .  S
Fe852       O855   2.037       .  S
Fe852       O859   2.097       .  S
Fe852       O868   2.089       .  S
Fe853       O858   2.059       .  S
Fe853       O865   2.053       .  S
Fe853       O854   2.106       .  S
Fe853       O862   1.955       .  S
O854        C861   1.275       .  A
O855        C869   1.267       .  A
O856        C861   1.265       .  A
O857        C860   1.272       .  A
O858        C870   1.269       .  A
O859        C872   1.275       .  A
C860        O865   1.270       .  A
C860       C1180   1.485       .  S
C861       C1060   1.473       .  S
O863        C866   1.265       .  A
O864        C866   1.274       .  A
C866       C1045   1.472       .  S
C869        O871   1.276       .  A
C869       C1072   1.473       .  S
C870       C1144   1.484       .  S
C872       C1036   1.475       .  S
Fe873       O889   2.057       .  S
Fe873       O879   2.098       .  S
Fe873       O886   2.104       .  S
Fe873       O878   2.042       .  S
Fe873       O884   1.948       .  S
Fe874       O877   2.040       .  S
Fe874       O881   2.078       .  S
Fe874       O885   2.045       .  S
Fe874       O890   2.092       .  S
Fe874       O884   1.947       .  S
Fe875       O893   2.109       .  S
Fe875       O880   2.057       .  S
Fe875       O887   2.052       .  S
Fe875       O876   2.102       .  S
Fe875       O884   1.950       .  S
O877        C891   1.265       .  A
O879        C882   1.278       .  A
O880        C892   1.269       .  A
O881        C894   1.270       .  A
C882        O887   1.270       .  A
C882       C1129   1.486       .  S
C883       C1000   1.474       .  S
O885        C888   1.269       .  A
O886        C888   1.280       .  A
C888       C1033   1.479       .  S
O889        C894   1.266       .  A
O890        C892   1.272       .  A
C891        O893   1.276       .  A
C891       C1012   1.470       .  S
C892       C1336   1.479       .  S
C894       C1024   1.485       .  S
Fe895       O911   2.026       .  S
Fe895       O901   2.092       .  S
Fe895       O908   2.098       .  S
Fe895       O900   2.033       .  S
Fe895       O906   1.953       .  S
Fe896       O899   2.044       .  S
Fe896       O903   2.092       .  S
Fe896       O907   2.052       .  S
Fe896       O912   2.094       .  S
Fe896       O906   1.949       .  S
Fe897       O915   2.100       .  S
Fe897       O902   2.055       .  S
Fe897       O909   2.051       .  S
Fe897       O898   2.105       .  S
Fe897       O906   1.953       .  S
O898        C905   1.275       .  A
O899        C913   1.265       .  A
O900        C905   1.265       .  A
O901        C904   1.274       .  A
O902        C914   1.270       .  A
O903        C916   1.274       .  A
C904        O909   1.268       .  A
C904       C1288   1.480       .  S
C905        C997   1.468       .  S
O907        C910   1.266       .  A
O908        C910   1.274       .  A
C910        C985   1.473       .  S
O911        C916   1.262       .  A
O912        C914   1.276       .  A
C913        O915   1.274       .  A
C913       C1009   1.471       .  S
C914       C1108   1.487       .  S
C916       C1084   1.461       .  S
Fe917       O933   2.046       .  S
Fe917       O923   2.088       .  S
Fe917       O930   2.084       .  S
Fe917       O922   2.037       .  S
Fe917       O928   1.947       .  S
Fe918       O921   2.036       .  S
Fe918       O925   2.099       .  S
Fe918       O929   2.049       .  S
Fe918       O934   2.092       .  S
Fe918       O928   1.941       .  S
Fe919       O937   2.113       .  S
Fe919       O924   2.056       .  S
Fe919       O931   2.048       .  S
Fe919       O920   2.116       .  S
Fe919       O928   1.943       .  S
O920        C927   1.279       .  A
O921        C935   1.267       .  A
O922        C927   1.267       .  A
O923        C926   1.272       .  A
O924        C936   1.268       .  A
O925        C938   1.278       .  A
C926        O931   1.266       .  A
C926       C1324   1.478       .  S
C927        C973   1.472       .  S
O929        C932   1.265       .  A
O930        C932   1.273       .  A
C932       C1021   1.472       .  S
O933        C938   1.268       .  A
O934        C936   1.273       .  A
C935        O937   1.278       .  A
C935        C961   1.478       .  S
C936       C1225   1.478       .  S
C938       C1093   1.487       .  S
Fe939       O955   2.041       .  S
Fe939       O945   2.078       .  S
Fe939       O952   2.086       .  S
Fe939       O944   2.033       .  S
Fe939       O950   1.944       .  S
Fe940       O943   2.049       .  S
Fe940       O947   2.097       .  S
Fe940       O951   2.055       .  S
Fe940       O956   2.083       .  S
Fe940       O950   1.946       .  S
Fe941       O959   2.102       .  S
Fe941       O946   2.054       .  S
Fe941       O953   2.061       .  S
Fe941       O942   2.115       .  S
Fe941       O950   1.949       .  S
O942        C949   1.278       .  A
O943        C957   1.269       .  A
O944        C949   1.268       .  A
O945        C948   1.269       .  A
O946        C958   1.270       .  A
O947        C960   1.277       .  A
C948        O953   1.267       .  A
C948       C1276   1.469       .  S
C949        C964   1.472       .  S
O951        C954   1.264       .  A
O952        C954   1.272       .  A
C954        C988   1.493       .  S
O955        C960   1.268       .  A
O956        C958   1.272       .  A
C957        O959   1.276       .  A
C957        C976   1.477       .  S
C958       C1189   1.481       .  S
C960       C1048   1.476       .  S
C961        C962   1.403       .  A
C961        C966   1.414       .  A
C962        C963   1.392       .  A
C962        H971   1.083       .  S
C963        C964   1.407       .  A
C963        S967   1.806       .  S
C964        C965   1.408       .  A
C965        C966   1.409       .  A
C965        H972   1.084       .  S
C966        S968   1.803       .  S
S967        H970   1.407       .  S
S968        H969   1.405       .  S
C973        C974   1.404       .  A
C973        C978   1.409       .  A
C974        C975   1.403       .  A
C974        H983   1.084       .  S
C977        C978   1.401       .  A
C978        S980   1.803       .  S
S979        H982   1.404       .  S
S980        H981   1.406       .  S
C985        C986   1.399       .  A
C985        C990   1.410       .  A
C986        C987   1.403       .  A
C986        H995   1.083       .  S
C987        C988   1.423       .  A
C987        S991   1.802       .  S
C988        C989   1.407       .  A
C989        C990   1.397       .  A
C989        H996   1.083       .  S
C990        S992   1.801       .  S
S991        H994   1.407       .  S
S992        H993   1.405       .  S
C997        C998   1.396       .  A
C997       C1002   1.415       .  A
C998        C999   1.396       .  A
C998       H1007   1.084       .  S
C999       C1000   1.415       .  A
C999       S1003   1.797       .  S
C1000      C1001   1.400       .  A
C1001      C1002   1.403       .  A
C1001      H1008   1.083       .  S
C1002      S1004   1.801       .  S
S1003      H1006   1.401       .  S
S1004      H1005   1.404       .  S
C1009      C1010   1.405       .  A
C1009      C1014   1.410       .  A
C1010      C1011   1.402       .  A
C1010      H1019   1.085       .  S
C1011      C1012   1.410       .  A
C1011      S1015   1.803       .  S
C1012      C1013   1.403       .  A
C1013      C1014   1.400       .  A
C1013      H1020   1.084       .  S
C1014      S1016   1.803       .  S
S1015      H1018   1.406       .  S
S1016      H1017   1.405       .  S
C1021      C1022   1.399       .  A
C1021      C1026   1.413       .  A
C1022      C1023   1.392       .  A
C1022      H1031   1.086       .  S
C1023      C1024   1.417       .  A
C1023      S1027   1.799       .  S
C1024      C1025   1.408       .  A
C1025      C1026   1.404       .  A
C1025      H1032   1.084       .  S
C1026      S1028   1.804       .  S
S1027      H1030   1.405       .  S
S1028      H1029   1.407       .  S
C1033      C1034   1.408       .  A
C1033      C1038   1.410       .  A
C1034      C1035   1.400       .  A
C1034      H1043   1.083       .  S
C1035      C1036   1.409       .  A
C1035      S1039   1.804       .  S
C1037      H1044   1.084       .  S
S1039      H1042   1.407       .  S
S1040      H1041   1.407       .  S
C1045      C1046   1.401       .  A
C1045      C1050   1.414       .  A
C1046      C1047   1.392       .  A
C1046      H1055   1.085       .  S
C1047      C1048   1.414       .  A
C1047      S1051   1.798       .  S
C1048      C1049   1.405       .  A
C1049      C1050   1.400       .  A
C1049      H1056   1.084       .  S
C1050      S1052   1.804       .  S
S1051      H1054   1.403       .  S
S1052      H1053   1.405       .  S
C1057      C1058   1.403       .  A
C1057      C1062   1.412       .  A
C1058      C1059   1.389       .  A
C1058      H1067   1.085       .  S
C1059      C1060   1.410       .  A
C1059      S1063   1.806       .  S
C1060      C1061   1.409       .  A
C1061      C1062   1.410       .  A
C1061      H1068   1.084       .  S
C1062      S1064   1.802       .  S
S1063      H1066   1.399       .  S
S1064      H1065   1.405       .  S
C1069      C1070   1.401       .  A
C1069      C1074   1.413       .  A
C1070      C1071   1.406       .  A
C1070      H1079   1.083       .  S
C1071      C1072   1.416       .  A
C1071      S1075   1.799       .  S
C1072      C1073   1.399       .  A
C1073      C1074   1.394       .  A
C1073      H1080   1.084       .  S
C1074      S1076   1.799       .  S
S1075      H1078   1.404       .  S
S1076      H1077   1.406       .  S
C1081      C1082   1.408       .  A
C1081      C1086   1.408       .  A
C1082      C1083   1.397       .  A
C1082      H1091   1.088       .  S
C1083      C1084   1.406       .  A
C1083      S1087   1.805       .  S
C1084      C1085   1.403       .  A
C1085      C1086   1.398       .  A
C1085      H1092   1.087       .  S
C1086      S1088   1.808       .  S
S1087      H1090   1.406       .  S
S1088      H1089   1.407       .  S
C1093      C1094   1.405       .  A
C1093      C1098   1.419       .  A
C1094      C1095   1.397       .  A
C1094      H1103   1.085       .  S
C1095      C1096   1.414       .  A
C1095      S1099   1.798       .  S
C1096      C1097   1.404       .  A
C1097      C1098   1.403       .  A
C1097      H1104   1.085       .  S
C1098      S1100   1.803       .  S
S1099      H1102   1.404       .  S
S1100      H1101   1.408       .  S
C1105      C1106   1.403       .  A
C1105      C1110   1.410       .  A
C1106      C1107   1.402       .  A
C1106      H1115   1.083       .  S
C1107      C1108   1.417       .  A
C1107      S1111   1.804       .  S
C1108      C1109   1.407       .  A
C1109      C1110   1.401       .  A
C1109      H1116   1.084       .  S
C1110      S1112   1.799       .  S
S1111      H1114   1.407       .  S
S1112      H1113   1.406       .  S
C1117      C1118   1.405       .  A
C1117      C1122   1.424       .  A
C1118      C1119   1.401   1_565  A
C1118      H1127   1.085       .  S
C1119      C1120   1.413       .  A
C1119      S1123   1.796       .  S
C1120      C1121   1.400       .  A
C1121      C1122   1.406   1_545  A
C1121      H1128   1.086       .  S
C1122      S1124   1.801       .  S
S1123      H1126   1.405       .  S
S1124      H1125   1.400       .  S
C1129      C1130   1.405       .  A
C1129      C1134   1.419       .  A
C1130      C1131   1.405       .  A
C1130      H1139   1.083       .  S
C1131      C1132   1.417       .  A
C1131      S1135   1.800       .  S
C1132      C1133   1.403       .  A
C1133      C1134   1.396       .  A
C1133      H1140   1.084       .  S
C1134      S1136   1.805       .  S
S1135      H1138   1.405       .  S
S1136      H1137   1.403       .  S
C1141      C1146   1.412       .  A
C1142      C1143   1.397   1_565  A
C1142      H1151   1.084       .  S
C1143      C1144   1.413       .  A
C1143      S1147   1.797       .  S
C1145      C1146   1.402   1_545  A
C1145      H1152   1.083       .  S
C1146      S1148   1.800       .  S
S1147      H1150   1.405       .  S
S1148      H1149   1.403       .  S
C1153      C1154   1.405       .  A
C1153      C1158   1.410       .  A
C1154      C1155   1.400       .  A
C1154      H1163   1.084       .  S
C1155      C1156   1.409       .  A
C1155      S1159   1.804       .  S
C1156      C1157   1.406       .  A
C1157      C1158   1.404       .  A
C1157      H1164   1.084       .  S
C1158      S1160   1.803       .  S
S1159      H1162   1.406       .  S
S1160      H1161   1.405       .  S
C1165      C1166   1.404       .  A
C1165      C1170   1.412       .  A
C1166      C1167   1.397       .  A
C1166      H1175   1.084       .  S
C1167      C1168   1.408       .  A
C1167      S1171   1.797       .  S
C1168      C1169   1.405       .  A
C1169      C1170   1.405       .  A
C1169      H1176   1.079       .  S
C1170      S1172   1.798       .  S
S1171      H1174   1.405       .  S
S1172      H1173   1.404       .  S
C1177      C1178   1.404       .  A
C1177      C1182   1.413       .  A
C1178      C1179   1.408   1_455  A
C1178      H1187   1.083       .  S
C1179      C1180   1.417       .  A
C1179      S1183   1.808       .  S
C1180      C1181   1.404       .  A
C1181      C1182   1.397   1_655  A
C1181      H1188   1.083       .  S
S1183      H1186   1.407       .  S
C1189      C1190   1.402       .  A
C1189      C1194   1.415       .  A
C1190      C1191   1.397       .  A
C1190      H1199   1.082       .  S
C1191      C1192   1.415       .  A
C1191      S1195   1.812       .  S
C1192      C1193   1.405       .  A
C1193      C1194   1.404       .  A
C1193      H1200   1.083       .  S
C1194      S1196   1.802       .  S
S1195      H1198   1.407       .  S
S1196      H1197   1.407       .  S
C1201      C1202   1.410       .  A
C1201      C1206   1.421       .  A
C1202      C1203   1.400       .  A
C1202      H1211   1.085       .  S
C1203      C1204   1.409       .  A
C1203      S1207   1.803       .  S
C1205      H1212   1.085       .  S
S1207      H1210   1.407       .  S
S1208      H1209   1.408       .  S
C1213      C1214   1.408       .  A
C1213      C1218   1.414       .  A
C1214      C1215   1.407   1_655  A
C1214      H1223   1.084       .  S
C1215      C1216   1.414       .  A
C1215      S1219   1.803       .  S
C1216      C1217   1.400       .  A
C1217      C1218   1.392   1_455  A
C1217      H1224   1.085       .  S
C1218      S1220   1.802       .  S
S1219      H1222   1.406       .  S
S1220      H1221   1.404       .  S
C1225      C1226   1.402       .  A
C1225      C1230   1.414       .  A
C1226      C1227   1.400       .  A
C1226      H1235   1.084       .  S
C1227      C1228   1.413       .  A
C1227      S1231   1.798       .  S
C1228      C1229   1.402       .  A
C1229      C1230   1.400       .  A
C1229      H1236   1.084       .  S
C1230      S1232   1.799       .  S
S1231      H1234   1.405       .  S
S1232      H1233   1.406       .  S
C1237      C1238   1.405       .  A
C1237      C1242   1.412       .  A
C1238      C1239   1.398       .  A
C1238      H1247   1.084       .  S
C1239      C1240   1.409       .  A
C1239      S1243   1.804       .  S
C1240      C1241   1.406       .  A
C1241      C1242   1.406       .  A
C1241      H1248   1.084       .  S
C1242      S1244   1.801       .  S
S1243      H1246   1.406       .  S
S1244      H1245   1.404       .  S
C1249      C1250   1.407       .  A
C1249      C1254   1.407       .  A
C1250      C1251   1.409       .  A
C1250      H1259   1.084       .  S
C1251      C1252   1.414       .  A
C1251      S1255   1.803       .  S
C1252      C1253   1.404       .  A
C1253      C1254   1.393       .  A
C1253      H1260   1.084       .  S
C1254      S1256   1.805       .  S
S1255      H1258   1.405       .  S
S1256      H1257   1.407       .  S
C1261      C1262   1.406       .  A
C1261      C1266   1.411       .  A
C1262      C1263   1.400       .  A
C1262      H1271   1.081       .  S
C1263      C1264   1.411       .  A
C1263      S1267   1.803       .  S
C1264      C1265   1.407       .  A
C1265      C1266   1.400       .  A
C1265      H1272   1.081       .  S
C1266      S1268   1.803       .  S
S1267      H1270   1.406       .  S
S1268      H1269   1.401       .  S
C1273      C1274   1.408       .  A
C1273      C1278   1.415       .  A
C1274      C1275   1.400   1_565  A
C1274      H1283   1.083       .  S
C1275      C1276   1.409       .  A
C1275      S1279   1.803       .  S
C1276      C1277   1.402       .  A
C1277      C1278   1.398   1_545  A
C1277      H1284   1.084       .  S
C1278      S1280   1.804       .  S
S1279      H1282   1.406       .  S
S1280      H1281   1.407       .  S
C1285      C1286   1.405       .  A
C1285      C1290   1.418       .  A
C1286      C1287   1.399   1_455  A
C1286      H1295   1.082       .  S
C1287      C1288   1.413       .  A
C1287      S1291   1.810       .  S
C1288      C1289   1.404       .  A
C1289      C1290   1.404   1_655  A
C1289      H1296   1.084       .  S
C1290      S1292   1.799       .  S
S1291      H1294   1.407       .  S
S1292      H1293   1.403       .  S
C1297      C1298   1.402       .  A
C1297      C1302   1.411       .  A
C1298      C1299   1.397       .  A
C1298      H1307   1.084       .  S
C1299      C1300   1.418       .  A
C1299      S1303   1.801       .  S
C1300      C1301   1.408       .  A
C1301      C1302   1.400       .  A
C1301      H1308   1.083       .  S
C1302      S1304   1.800       .  S
S1303      H1306   1.408       .  S
S1304      H1305   1.407       .  S
C1309      C1310   1.401       .  A
C1309      C1314   1.409       .  A
C1310      C1311   1.397       .  A
C1310      H1319   1.088       .  S
C1311      C1312   1.419       .  A
C1311      S1315   1.803       .  S
C1312      C1313   1.410       .  A
C1313      C1314   1.400       .  A
C1313      H1320   1.087       .  S
C1314      S1316   1.804       .  S
S1315      H1318   1.402       .  S
S1316      H1317   1.407       .  S
C1321      C1322   1.401       .  A
C1321      C1326   1.413       .  A
C1322      C1323   1.396   1_565  A
C1322      H1331   1.083       .  S
C1323      C1324   1.414       .  A
C1323      S1327   1.811       .  S
C1324      C1325   1.406       .  A
C1325      C1326   1.408   1_545  A
C1325      H1332   1.083       .  S
C1326      S1328   1.807       .  S
S1327      H1330   1.406       .  S
S1328      H1329   1.407       .  S
C1333      C1334   1.404       .  A
C1333      C1338   1.413       .  A
C1334      C1335   1.399   1_455  A
C1334      H1343   1.074       .  S
C1335      C1336   1.411       .  A
C1335      S1339   1.805       .  S
C1336      C1337   1.407       .  A
C1337      C1338   1.404   1_655  A
C1337      H1344   1.082       .  S
C1338      S1340   1.804       .  S
S1339      H1342   1.407       .  S
S1340      H1341   1.407       .  S
C1346      C1347   1.406       .  A
C1347      C1348   1.416       .  A
C1347      S1351   1.803       .  S
C1348      C1349   1.398       .  A
C1349      C1350   1.398       .  A
C1349      H1356   1.084       .  S
S1351      H1354   1.403       .  S
S1352      H1353   1.407       .  S
C1357      C1358   1.402       .  A
C1357      C1362   1.414       .  A
C1358      C1359   1.405       .  A
C1358      H1367   1.083       .  S
C1359      C1360   1.415       .  A
C1359      S1363   1.803       .  S
C1360      C1361   1.399       .  A
C1361      C1362   1.399       .  A
C1361      H1368   1.083       .  S
C1362      S1364   1.802       .  S
S1363      H1366   1.406       .  S
S1364      H1365   1.406       .  S
C1369      C1370   1.401       .  A
C1369      C1374   1.411       .  A
C1370      C1371   1.391       .  A
C1370      H1379   1.084       .  S
C1371      C1372   1.413       .  A
C1371      S1375   1.799       .  S
C1372      C1373   1.408       .  A
C1373      C1374   1.404       .  A
C1373      H1380   1.082       .  S
C1374      S1376   1.808       .  S
S1375      H1378   1.405       .  S
S1376      H1377   1.407       .  S
C1381      C1382   1.409       .  A
C1381      C1386   1.421       .  A
C1382      C1383   1.401       .  A
C1382      H1391   1.083       .  S
C1383      C1384   1.412       .  A
C1383      S1387   1.802       .  S
C1384      C1385   1.402       .  A
C1385      C1386   1.401       .  A
C1385      H1392   1.084       .  S
C1386      S1388   1.802       .  S
S1387      H1390   1.407       .  S
S1388      H1389   1.401       .  S
