geometry optimzed in LAMMPS
_audit_creation_date              2020-11-30 
_audit_creation_method            'lammps2cif' 
_symmetry_space_group_name_H-M    'P1' 
_symmetry_Int_Tables_number       1 
_symmetry_cell_setting            triclinic 
loop_ 
_symmetry_equiv_pos_as_xyz 
  x,y,z 
_cell_length_a                    46.925493042881186 
_cell_length_b                    45.297760460645954 
_cell_length_c                    36.1369001705713 
_cell_angle_alpha                 93.45291416154926 
_cell_angle_beta                  98.20256159314403 
_cell_angle_gamma                 88.71773866573142 
loop_ 
_atom_site_label 
_atom_site_type_symbol 
_atom_site_fract_x 
_atom_site_fract_y 
_atom_site_fract_z 
_atom_site_charge 
O1          O  0.46417746  0.06178775  0.25191048    -0.81110
O2          O  0.01010648  0.18139046  0.24271336    -0.65800
O3          O  0.00686829  0.09957904  0.25996389    -1.12400
C4          C  0.46154618  0.12021218  0.36185574     1.05780
O5          O  0.00089226  0.20009527  0.29942170    -0.79000
O6          O  0.02963742  0.15535078  0.33732026    -0.66580
Ni7        Ni  0.99097973  0.07338566  0.22157499     1.34870
C8          C  0.03606144  0.12839109  0.34236948     0.84520
O9          O  0.03689395  0.13091356  0.21554847    -0.79540
O10         O  0.01985662  0.08626416  0.19161100    -0.89820
C11         C  0.00715320  0.20290000  0.26647183     0.84090
O12         O  0.45928453  0.09886972  0.20979880    -0.68020
O13         O  0.47889837  0.14210531  0.36704455    -0.87310
C14         C  0.46100969  0.11935716  0.18942621     0.84920
C15         C  0.03809289  0.10743565  0.19367830     1.06490
H16         H  0.46122234  0.14981395  0.27179695     0.38290
O17         O  0.48015282  0.14473678  0.28425594    -1.09970
O18         O  0.01707476  0.10825523  0.33368914    -0.66620
Ni19       Ni  0.48194956  0.10456745  0.29664007     1.26350
O20         O  0.47973662  0.13906259  0.20099672    -0.66850
O21         O  0.45459001  0.10929935  0.32955575    -0.79140
C22         C  0.47708161  0.04889050  0.27894513     0.84300
O23         O  0.48435797  0.06432623  0.30828174    -0.66320
Ni24       Ni  0.49033365  0.16948075  0.32983442     1.27450
Ni25       Ni  0.00802611  0.13992204  0.24861430     1.26060
H26         H  0.02539592  0.09209743  0.27037360     0.38850
O27         O  0.02253227  0.32584461  0.19427799    -0.81110
O28         O  0.04003901  0.45997630  0.17786089    -0.65800
O29         O  0.04895750  0.37995416  0.20331556    -1.12400
C30         C  0.49278009  0.42096741  0.29765434     1.05780
O31         O  0.06176589  0.46171315  0.23377922    -0.79000
O32         O  0.05925621  0.43833892  0.29813970    -0.66580
Ni33       Ni  0.04192467  0.35021047  0.16324400     1.34870
C34         C  0.07231775  0.41385847  0.29854029     0.84520
O35         O  0.06931245  0.41665504  0.15407022    -0.79540
O36         O  0.06310599  0.37094857  0.12871930    -0.89820
C37         C  0.04821429  0.47514159  0.20736102     0.84090
O38         O  0.00476414  0.36461691  0.14076084    -0.68020
O39         O  0.50223666  0.44521153  0.28844345    -0.87310
C40         C  0.49493557  0.39091043  0.13827632     0.84920
C41         C  0.07423205  0.39676720  0.13033967     1.06490
H42         H  0.50123543  0.42622361  0.21774490     0.38290
O43         O  0.02108145  0.42326494  0.22804425    -1.09970
O44         O  0.06220780  0.39119448  0.27851905    -0.66620
Ni45       Ni  0.02572416  0.38507272  0.24418143     1.26350
O46         O  0.00943460  0.41323945  0.15308674    -0.66850
O47         O  0.50128480  0.39503019  0.28492047    -0.79140
C48         C  0.02416521  0.32277693  0.22961068     0.84300
O49         O  0.02883270  0.34414782  0.25446459    -0.66320
Ni50       Ni  0.03201432  0.45476152  0.26204581     1.27450
Ni51       Ni  0.04426182  0.41961416  0.18914772     1.26060
H52         H  0.06887953  0.37733190  0.21391871     0.38850
O53         O  0.06376072  0.04090861  0.45455972    -0.81110
O54         O  0.18800827  0.02277383  0.47632662    -0.65800
O55         O  0.10958565  0.50892988  0.47888490    -1.12400
C56         C  0.11764087  0.06529147  0.09094048     1.05780
O57         O  0.19950693  0.01634155  0.03844361    -0.79000
O58         O  0.15265388  0.49224093  0.06325171    -0.66580
Ni59       Ni  0.08228015  0.50808224  0.43488562     1.34870
C60         C  0.12612261  0.48694993  0.06270185     0.84520
O61         O  0.14770235  0.48861847  0.42920900    -0.79540
O62         O  0.10116824  0.47499685  0.41568528    -0.89820
C63         C  0.20627413  0.01823250  0.50537642     0.84090
O64         O  0.10100645  0.03331278  0.40624305    -0.68020
O65         O  0.13978833  0.04801780  0.09748457    -0.87310
C66         C  0.11648610  0.05484077  0.41976483     0.84920
C67         C  0.12754133  0.47166801  0.41187514     1.06490
H68         H  0.15213730  0.06121990  0.51494400     0.38290
O69         O  0.14697365  0.04135501  0.01936687    -1.09970
O70         O  0.10705880  0.50662644  0.05240073    -0.66620
Ni71       Ni  0.10727837  0.03911327  0.01847612     1.26350
O72         O  0.13741729  0.05137086  0.44622252    -0.66850
O73         O  0.10634233  0.06869285  0.05756870    -0.79140
C74         C  0.05294512  0.03550570  0.48319639     0.84300
O75         O  0.06778030  0.03813779  0.01485060    -0.66320
Ni76       Ni  0.16841335  0.03128172  0.06541700     1.27450
Ni77       Ni  0.14805947  0.01585195  0.47465866     1.26060
H78         H  0.10891082  0.48958946  0.48853743     0.38850
O79         O  0.33104926  0.00750288  0.45260468    -0.81110
O80         O  0.45779467  0.95992041  0.46398684    -0.65800
O81         O  0.37932443  0.47468138  0.46625481    -1.12400
C82         C  0.41889149  0.03753292  0.07366930     1.05780
O83         O  0.45982800  0.95294515  0.02320784    -0.79000
O84         O  0.42854935  0.47413409  0.07619470    -0.66580
Ni85       Ni  0.35916716  0.49019354  0.42232788     1.34870
C86         C  0.41018018  0.45505501  0.06389624     0.84520
O87         O  0.41092944  0.44044783  0.42208703    -0.79540
O88         O  0.38483646  0.47211968  0.38716651    -0.89820
C89         C  0.47254906  0.95531032  0.49518026     0.84090
O90         O  0.38129860  0.02576206  0.42894290    -0.68020
O91         O  0.44225979  0.02799813  0.06327735    -0.87310
C92         C  0.40813171  0.02610545  0.42701805     0.84920
C93         C  0.40299774  0.45037481  0.39046148     1.06490
H94         H  0.42831631  0.01614027  0.99592017     0.38290
O95         O  0.42373698  0.99720225  0.00422073    -1.09970
O96         O  0.38957596  0.46164362  0.03839791    -0.66620
Ni97       Ni  0.38539404  0.99932404  0.01245452     1.26350
O98         O  0.42334877  0.00227009  0.43227661    -0.66850
O99         O  0.39414180  0.02611846  0.05956168    -0.79140
C100        C  0.32604376  0.00692754  0.98668918     0.84300
O101        O  0.34512369  0.00117623  0.01453804    -0.66320
Ni102      Ni  0.45170854  0.99053195  0.04451878     1.27450
Ni103      Ni  0.41836530  0.46836753  0.46324196     1.26060
H104        H  0.37062171  0.45621737  0.47024194     0.38850
C105        C  0.28247102  0.48781536  0.00675314    -0.05990
C106        C  0.29593133  0.01149101  0.99332367    -0.00070
C107        C  0.27989727  0.03748680  0.48384270    -0.08640
C108        C  0.25047404  0.03870441  0.48781713    -0.06020
C109        C  0.23698066  0.01490890  0.50099892    -0.00080
C110        C  0.25304647  0.48892180  0.01045390    -0.08550
C111        C  0.23893090  0.46206051  0.02288219     0.61830
H112        H  0.29512304  0.46803825  0.01338592     0.12520
H113        H  0.23774965  0.05837830  0.48090259     0.12540
C114        C  0.29398604  0.06403517  0.47064396     0.62060
F115        F  0.25761812  0.43796512  0.02607806    -0.23100
F116        F  0.21532910  0.45411199  0.99696414    -0.20430
F117        F  0.23011761  0.46846813  0.05739384    -0.20110
F118        F  0.30247054  0.05717821  0.43602582    -0.20160
F119        F  0.31782226  0.07206515  0.49609954    -0.20480
F120        F  0.27538590  0.08819305  0.46731459    -0.23160
C121        C  0.50348886  0.99333600  0.02428396    -0.05990
C122        C  0.50085970  0.96766071  0.50042305    -0.00070
C123        C  0.01638986  0.46437747  0.46998123    -0.08640
C124        C  0.03034659  0.48908753  0.46054502    -0.06020
C125        C  0.02900093  0.01622355  0.48145262    -0.00080
C126        C  0.01385772  0.01895306  0.01230841    -0.08550
C127        C  0.01071419  0.04823923  0.03468794     0.61830
H128        H  0.49432644  0.99464061  0.05005345     0.12520
H129        H  0.04333171  0.48660870  0.43812554     0.12540
C130        C  0.51846471  0.43478837  0.44808465     0.62060
F131        F  0.98227150  0.05324918  0.03868328    -0.23100
F132        F  0.01927777  0.07235806  0.51752369    -0.20430
F133        F  0.02708922  0.04720809  0.06952956    -0.20110
F134        F  0.50485441  0.43633530  0.41220886    -0.20160
F135        F  0.50558779  0.41221778  0.96359065    -0.20480
F136        F  0.04710775  0.42726923  0.44714135    -0.23160
C137        C  0.12006689  0.41643230  0.11661822    -0.05990
C138        C  0.09178544  0.40761050  0.10289685    -0.00070
C139        C  0.07724196  0.42172739  0.07197099    -0.08640
C140        C  0.08940809  0.44676829  0.05877180    -0.06020
C141        C  0.11667018  0.45755970  0.07467890    -0.00080
C142        C  0.13303335  0.44078824  0.10278584    -0.08550
C143        C  0.16337259  0.44931676  0.11997430     0.61830
H144        H  0.13092775  0.40577326  0.14085671     0.12520
H145        H  0.07694980  0.45884378  0.03684228     0.12540
C146        C  0.04708777  0.41256320  0.05633373     0.62060
F147        F  0.17456375  0.43101103  0.14797132    -0.23100
F148        F  0.16343373  0.97797008  0.13550676    -0.20430
F149        F  0.18130563  0.44708611  0.09268911    -0.20110
F150        F  0.02772888  0.42476661  0.07862628    -0.20160
F151        F  0.04491689  0.38207477  0.05392837    -0.20480
F152        F  0.04028081  0.42205275  0.02107748    -0.23160
C153        C  0.12044702  0.42009848  0.38907154    -0.05990
C154        C  0.13233281  0.44758041  0.38363085    -0.00070
C155        C  0.13416864  0.45479202  0.34655385    -0.08640
C156        C  0.11890436  0.43754464  0.31663719    -0.06020
C157        C  0.10071865  0.41454410  0.32306490    -0.00080
C158        C  0.10389925  0.40377024  0.35929264    -0.08550
C159        C  0.08851729  0.37620458  0.36653167     0.61830
H160        H  0.12003419  0.41413152  0.41757543     0.12520
H161        H  0.11694351  0.44530854  0.28858001     0.12540
C162        C  0.14791492  0.48333322  0.33888795     0.62060
F163        F  0.09475144  0.36892628  0.40350350    -0.23100
F164        F  0.09744713  0.35298781  0.34421792    -0.20430
F165        F  0.05903439  0.38010513  0.35812526    -0.20110
F166        F  0.17478037  0.98582924  0.36014694    -0.20160
F167        F  0.13086955  0.50717736  0.34808631    -0.20480
F168        F  0.15131758  0.48424670  0.30154273    -0.23160
C169        C  0.45852104  0.39189723  0.07940624    -0.05990
C170        C  0.46495928  0.39629585  0.11850070    -0.00070
C171        C  0.44294531  0.40879490  0.13779589    -0.08640
C172        C  0.41997348  0.42455473  0.11793823    -0.06020
C173        C  0.41637881  0.42512777  0.07875896    -0.00080
C174        C  0.43328058  0.40447980  0.05960296    -0.08550
C175        C  0.42461017  0.39432890  0.01900054     0.61830
H176        H  0.97347164  0.37933490  0.06415676     0.12520
H177        H  0.40633799  0.43872565  0.13345399     0.12540
C178        C  0.44366297  0.40755793  0.17938296     0.62060
F179        F  0.91776460  0.36470198  0.01721493    -0.23100
F180        F  0.44707766  0.39745449  0.99873384    -0.20430
F181        F  0.40084893  0.40975944  0.00262603    -0.20110
F182        F  0.45060943  0.43507065  0.19527800    -0.20160
F183        F  0.46337632  0.38698461  0.19484092    -0.20480
F184        F  0.41679331  0.40023536  0.18731355    -0.23160
C185        C  0.44672511  0.40684592  0.32217167    -0.05990
C186        C  0.47041973  0.42582429  0.32381803    -0.00070
C187        C  0.46985558  0.45307594  0.34618210    -0.08640
C188        C  0.44511102  0.46137808  0.36201048    -0.06020
C189        C  0.42211497  0.44242206  0.36155397    -0.00080
C190        C  0.42300344  0.41438175  0.34190995    -0.08550
C191        C  0.39839307  0.39324957  0.34107607     0.61830
H192        H  0.44667965  0.38638983  0.30506082     0.12520
H193        H  0.44453983  0.48260012  0.37726589     0.12540
C194        C  0.99503303  0.47435659  0.35468516     0.62060
F195        F  0.40190913  0.36792424  0.31870023    -0.23100
F196        F  0.37284381  0.40703997  0.32710243    -0.20430
F197        F  0.39667245  0.38506774  0.37693673    -0.20110
F198        F  0.99273983  0.49452230  0.32774719    -0.20160
F199        F  0.02141264  0.45978747  0.35629895    -0.20480
F200        F  0.99459556  0.49006751  0.38861837    -0.23160
C201        C  0.08118316  0.10256651  0.11081093    -0.05990
C202        C  0.10220890  0.08051081  0.12146972    -0.00070
C203        C  0.10551015  0.07260663  0.15939266    -0.08640
C204        C  0.08498399  0.08319812  0.18264986    -0.06020
C205        C  0.06231779  0.10279813  0.17045517    -0.00080
C206        C  0.06189988  0.11443800  0.13492430    -0.08550
C207        C  0.04165486  0.13974415  0.12283597     0.61830
H208        H  0.07948989  0.11028629  0.08280830     0.12520
H209        H  0.08612935  0.07570596  0.21060473     0.12540
C210        C  0.13015720  0.05285374  0.17536460     0.62060
F211        F  0.04573692  0.14905303  0.08819591    -0.23100
F212        F  0.04652608  0.16347651  0.14872348    -0.20430
F213        F  0.01342146  0.13130327  0.12056950    -0.20110
F214        F  0.15601698  0.06408963  0.16874263    -0.20160
F215        F  0.12666657  0.02457489  0.15891473    -0.20480
F216        F  0.13161096  0.05127224  0.21370743    -0.23160
C217        C  0.06797661  0.12091648  0.40237751    -0.05990
C218        C  0.06487909  0.11998028  0.36325274    -0.00070
C219        C  0.08763673  0.10687654  0.34580141    -0.08640
C220        C  0.10721859  0.08741242  0.36618475    -0.06020
C221        C  0.10721491  0.08419408  0.40473437    -0.00080
C222        C  0.08916800  0.10390465  0.42361028    -0.08550
C223        C  0.09036234  0.10757131  0.46571088     0.61830
H224        H  0.05273106  0.13400181  0.41656093     0.12520
H225        H  0.12205879  0.07390213  0.35185350     0.12540
C226        C  0.09342895  0.11642722  0.30816804     0.62060
F227        F  0.09640771  0.13672306  0.47715331    -0.23100
F228        F  0.11121043  0.09009900  0.48457018    -0.20430
F229        F  0.06397375  0.10088197  0.47564434    -0.20110
F230        F  0.09870125  0.14644451  0.31104347    -0.20160
F231        F  0.07022358  0.11116380  0.28110378    -0.20480
F232        F  0.11720857  0.10187207  0.29669281    -0.23160
C233        C  0.40659474  0.08612362  0.11191282    -0.05990
C234        C  0.42465819  0.06172108  0.10443983    -0.00070
C235        C  0.45348428  0.06328812  0.12240612    -0.08640
C236        C  0.46513882  0.09091511  0.13324149    -0.06020
C237        C  0.44816315  0.11219163  0.14954055    -0.00080
C238        C  0.41768623  0.10986449  0.13809442    -0.08550
C239        C  0.39764360  0.13252719  0.15331957     0.61830
H240        H  0.38425156  0.08585734  0.09929259     0.12520
H241        H  0.48800205  0.09182803  0.13978948     0.12540
C242        C  0.47124154  0.03611464  0.13453287     0.62060
F243        F  0.36929605  0.12781165  0.13778673    -0.23100
F244        F  0.40527857  0.16048356  0.14521944    -0.20310
F245        F  0.39967153  0.13112529  0.19172913    -0.20110
F246        F  0.49328489  0.03127122  0.11344256    -0.20160
F247        F  0.45466009  0.01104292  0.13193499    -0.20480
F248        F  0.48303269  0.04047208  0.17147448    -0.23160
C249        C  0.42190176  0.10506676  0.39589912    -0.05990
C250        C  0.45127997  0.10326898  0.39197288    -0.00070
C251        C  0.46661938  0.07763697  0.40469057    -0.08640
C252        C  0.45192410  0.05340643  0.41556784    -0.06020
C253        C  0.42217144  0.05423104  0.41738733    -0.00080
C254        C  0.40739162  0.08182132  0.41014235    -0.08550
C255        C  0.37649549  0.08723825  0.41705693     0.61830
H256        H  0.40992297  0.12439851  0.38585184     0.12520
H257        H  0.46424916  0.03362109  0.42320911     0.12540
C258        C  0.49884159  0.07513473  0.40831129     0.62060
F259        F  0.36790663  0.11637849  0.41233733    -0.23100
F260        F  0.37392977  0.08120060  0.45352073    -0.20430
F261        F  0.35812985  0.06952657  0.39230922    -0.20110
F262        F  0.51114522  0.10155182  0.40363856    -0.20160
F263        F  0.50703906  0.05371135  0.38287820    -0.20480
F264        F  0.50899692  0.06749238  0.44394758    -0.23160
C265        C  0.49507608  0.27742788  0.22382616    -0.05990
C266        C  0.01958838  0.29266955  0.24129274    -0.00070
C267        C  0.04037449  0.27789317  0.26632019    -0.08640
C268        C  0.03572503  0.24830677  0.27333021    -0.06020
C269        C  0.01127076  0.23320798  0.25585417    -0.00080
C270        C  0.49038539  0.24786971  0.23103513    -0.08550
C271        C  0.46306692  0.23243970  0.21301631     0.61830
H272        H  0.47956921  0.28895706  0.20446428     0.12520
H273        H  0.05113688  0.23666345  0.29269568     0.12540
C274        C  0.06743580  0.29317832  0.28522897     0.62060
F275        F  0.44485644  0.25106688  0.19125547    -0.23100
F276        F  0.44839048  0.22277161  0.24050865    -0.20430
F277        F  0.46995651  0.20841936  0.19035976    -0.20110
F278        F  0.05988211  0.31576363  0.30946292    -0.20160
F279        F  0.08194281  0.30462475  0.25867986    -0.20480
F280        F  0.08604529  0.27404763  0.30565018    -0.23160
C281        C  0.00028983  0.49144980  0.21604722    -0.05990
C282        C  0.02973115  0.49848703  0.21962167    -0.00070
C283        C  0.04193321  0.01845424  0.24879572    -0.08640
C284        C  0.02451125  0.03027930  0.27407330    -0.06020
C285        C  0.49495662  0.02482535  0.26859327    -0.00080
C286        C  0.48275365  0.00392361  0.24106015    -0.08550
C287        C  0.45161503  0.49409935  0.23860358     0.61830
H288        H  0.49137522  0.47468917  0.19522191     0.12520
H289        H  0.03359178  0.04577154  0.29647207     0.12540
C290        C  0.07394311  0.02448982  0.25634552     0.62060
F291        F  0.45139893  0.46625136  0.25189649    -0.23100
F292        F  0.43837675  0.99368752  0.20185295    -0.20430
F293        F  0.43519017  0.51195196  0.25997971    -0.20110
F294        F  0.08641085  0.02003964  0.22398837    -0.20160
F295        F  0.08705926  0.00588780  0.28280795    -0.20480
F296        F  0.07874680  0.05332746  0.26990120    -0.23160
O297        O  0.46417925  0.06178741  0.75191313    -0.81110
O298        O  0.01010709  0.18139009  0.74271112    -0.65800
O299        O  0.00686958  0.09957899  0.75996446    -1.12400
C300        C  0.46154743  0.12021387  0.86185603     1.05780
O301        O  0.00089336  0.20009559  0.79941947    -0.79000
O302        O  0.02963869  0.15535210  0.83731938    -0.66580
Ni303      Ni  0.99098127  0.07338442  0.72157664     1.34870
C304        C  0.03606277  0.12839255  0.84236937     0.84520
O305        O  0.03689460  0.13091237  0.71554729    -0.79540
O306        O  0.01985766  0.08626229  0.69161157    -0.89820
C307        C  0.00715411  0.20289992  0.76646943     0.84090
O308        O  0.45928561  0.09886755  0.70979865    -0.68020
O309        O  0.47889960  0.14210702  0.86704427    -0.87310
C310        C  0.46101045  0.11935497  0.68942584     0.84920
C311        C  0.03809373  0.10743393  0.69367801     1.06490
H312        H  0.46122331  0.14981397  0.77179628     0.38290
O313        O  0.48015387  0.14473709  0.78425524    -1.09970
O314        O  0.01707611  0.10825665  0.83368967    -0.66620
Ni315      Ni  0.48195088  0.10456815  0.79664077     1.26350
O316        O  0.47973704  0.13906089  0.70099598    -0.66850
O317        O  0.45459126  0.10930064  0.82955627    -0.79140
C318        C  0.47708371  0.04889110  0.77894839     0.84300
O319        O  0.48435981  0.06432752  0.80828436    -0.66320
Ni320      Ni  0.49033478  0.16948176  0.82983316     1.27450
Ni321      Ni  0.00802697  0.13992164  0.74861332     1.26060
H322        H  0.02539731  0.09209779  0.77037444     0.38850
O323        O  0.02252773  0.32584753  0.69427935    -0.81110
O324        O  0.04003809  0.45997753  0.67786249    -0.65800
O325        O  0.04895676  0.37995523  0.70331667    -1.12400
C326        C  0.49278223  0.42096924  0.79765813     1.05780
O327        O  0.06176720  0.46171395  0.73377988    -0.79000
O328        O  0.05925921  0.43833986  0.79814106    -0.66580
Ni329      Ni  0.04192309  0.35021095  0.66324594     1.34870
C330        C  0.07231989  0.41385895  0.79854189     0.84520
O331        O  0.06930823  0.41665582  0.65406716    -0.79540
O332        O  0.06310690  0.37094687  0.62872229    -0.89820
C333        C  0.04821480  0.47514265  0.70736241     0.84090
O334        O  0.00476373  0.36461845  0.64075960    -0.68020
O335        O  0.50223978  0.44521317  0.78844793    -0.87310
C336        C  0.49493387  0.39091167  0.63827770     0.84920
C337        C  0.07423016  0.39676661  0.63033944     1.06490
H338        H  0.50123655  0.42622532  0.71774994     0.38290
O339        O  0.02108270  0.42326631  0.72804768    -1.09970
O340        O  0.06220911  0.39119504  0.77852104    -0.66620
Ni341      Ni  0.02572489  0.38507396  0.74418410     1.26350
O342        O  0.00943161  0.41324073  0.65309073    -0.66850
O343        O  0.50128625  0.39503181  0.78492389    -0.79140
C344        C  0.02416370  0.32277845  0.72961202     0.84300
O345        O  0.02883307  0.34414872  0.75446654    -0.66320
Ni346      Ni  0.03201668  0.45476281  0.76204852     1.27450
Ni347      Ni  0.04426064  0.41961523  0.68914853     1.26060
H348        H  0.06887900  0.37733312  0.71391904     0.38850
O349        O  0.06376079  0.04090960  0.95456053    -0.81110
O350        O  0.18800879  0.02277568  0.97632812    -0.65800
O351        O  0.10958612  0.50893138  0.97888591    -1.12400
C352        C  0.11764135  0.06528950  0.59093974     1.05780
O353        O  0.19950646  0.01633823  0.53844175    -0.79000
O354        O  0.15265294  0.49223843  0.56325026    -0.66580
Ni355      Ni  0.08228064  0.50808345  0.93488657     1.34870
C356        C  0.12612157  0.48694801  0.56270072     0.84520
O357        O  0.14770318  0.48861972  0.92921061    -0.79540
O358        O  0.10116904  0.47499824  0.91568628    -0.89820
C359        C  0.20627463  0.01823509  0.00537821     0.84090
O360        O  0.10100666  0.03331425  0.90624399    -0.68020
O361        O  0.13978863  0.04801552  0.59748358    -0.87310
C362        C  0.11648655  0.05484214  0.91976557     0.84920
C363        C  0.12754221  0.47166923  0.91187663     1.06490
H364        H  0.15213717  0.06122195  0.01494465     0.38290
O365        O  0.14697354  0.04135297  0.51936592    -1.09970
O366        O  0.10705815  0.50662493  0.55239976    -0.66620
Ni367      Ni  0.10727824  0.03911174  0.51847526     1.26350
O368        O  0.13741778  0.05137222  0.94622324    -0.66850
O369        O  0.10634272  0.06869117  0.55756806    -0.79140
C370        C  0.05294529  0.03550669  0.98319728     0.84300
O371        O  0.06778008  0.03813684  0.51484975    -0.66320
Ni372      Ni  0.16841325  0.03127893  0.56541568     1.27450
Ni373      Ni  0.14805997  0.01585360  0.97465993     1.26060
H374        H  0.10891137  0.48959098  0.98853851     0.38850
O375        O  0.33105009  0.00750576  0.95260676    -0.81110
O376        O  0.45779511  0.95992285  0.96398931    -0.65800
O377        O  0.37932490  0.47468364  0.96625648    -1.12400
C378        C  0.41889179  0.03753069  0.57366772     1.05780
O379        O  0.45982766  0.95294269  0.52320528    -0.79000
O380        O  0.42854918  0.47413137  0.57619222    -0.66580
Ni381      Ni  0.35916791  0.49019638  0.92232976     1.34870
C382        C  0.41017940  0.45505287  0.56389377     0.84520
O383        O  0.41093020  0.44045052  0.92208866    -0.79540
O384        O  0.38483723  0.47212253  0.88716830    -0.89820
C385        C  0.47254938  0.95531247  0.99518274     0.84090
O386        O  0.38129955  0.02576480  0.92894509    -0.68020
O387        O  0.44226001  0.02799541  0.56327603    -0.87310
C388        C  0.40813264  0.02610806  0.92702005     0.84920
C389        C  0.40299855  0.45037766  0.89046317     1.06490
H390        H  0.42831633  0.01613793  0.49591809     0.38290
O391        O  0.42373676  0.99719999  0.50421867    -1.09970
O392        O  0.38957515  0.46164197  0.53839586    -0.66620
Ni393      Ni  0.38539378  0.99932223  0.51245251     1.26350
O394        O  0.42334960  0.00227265  0.93227877    -0.66850
O395        O  0.39414191  0.02611677  0.55955968    -0.79140
C396        C  0.32604323  0.00692524  0.48668727     0.84300
O397        O  0.34512340  0.00117474  0.51453620    -0.66320
Ni398      Ni  0.45170836  0.99052936  0.54451665     1.27450
Ni399      Ni  0.41836578  0.46836997  0.96324388     1.26060
H400        H  0.37062212  0.45621958  0.97024326     0.38850
C401        C  0.28246993  0.48781178  0.50674837    -0.05990
C402        C  0.29593081  0.01148842  0.49332183    -0.00070
C403        C  0.27989731  0.03748864  0.98384219    -0.08640
C404        C  0.25047407  0.03870619  0.98781656    -0.06020
C405        C  0.23698122  0.01491153  0.00100105    -0.00080
C406        C  0.25304529  0.48891815  0.51044868    -0.08550
C407        C  0.23892886  0.46205582  0.52287290     0.61830
H408        H  0.29512154  0.46803402  0.51337901     0.12520
H409        H  0.23774927  0.05837942  0.98089996     0.12540
C410        C  0.29398554  0.06403648  0.97064132     0.62060
F411        F  0.25761566  0.43796001  0.52606662    -0.23100
F412        F  0.21532748  0.45410932  0.49695304    -0.20430
F413        F  0.23011468  0.46846089  0.55738454    -0.20110
F414        F  0.30246950  0.05717832  0.93602314    -0.20160
F415        F  0.31782201  0.07206750  0.99609589    -0.20480
F416        F  0.27538516  0.08819414  0.96731102    -0.23160
C417        C  0.50348817  0.99333441  0.52428194    -0.05990
C418        C  0.50086023  0.96766214  0.00042545    -0.00070
C419        C  0.01639003  0.46437855  0.96998331    -0.08640
C420        C  0.03034679  0.48908845  0.96054664    -0.06020
C421        C  0.02900104  0.01622469  0.98145371    -0.00080
C422        C  0.01385745  0.01895162  0.51230717    -0.08550
C423        C  0.01071425  0.04823758  0.53468732     0.61830
H424        H  0.49432583  0.99463870  0.55005146     0.12520
H425        H  0.04333190  0.48660939  0.93812714     0.12540
C426        C  0.51846363  0.43478936  0.94808636     0.62060
F427        F  0.98227175  0.05324745  0.53868370    -0.23100
F428        F  0.01927820  0.07235951  0.01752441    -0.20430
F429        F  0.02708991  0.04720616  0.56952850    -0.20110
F430        F  0.50485095  0.43633620  0.91221175    -0.20160
F431        F  0.50558760  0.41221675  0.46358722    -0.20480
F432        F  0.04710635  0.42727021  0.94713996    -0.23160
C433        C  0.12006523  0.41642957  0.61661573    -0.05990
C434        C  0.09178317  0.40760909  0.60289576    -0.00070
C435        C  0.07723912  0.42172718  0.57197115    -0.08640
C436        C  0.08940535  0.44676819  0.55877249    -0.06020
C437        C  0.11666848  0.45755802  0.57467782    -0.00080
C438        C  0.13303202  0.44078527  0.60278318    -0.08550
C439        C  0.16337204  0.44931225  0.61997001     0.61830
H440        H  0.13092647  0.40576972  0.64085336     0.12520
H441        H  0.07694640  0.45884471  0.53684448     0.12540
C442        C  0.04708360  0.41256573  0.55633628     0.62060
F443        F  0.17456356  0.43100538  0.64796558    -0.23100
F444        F  0.16343483  0.97796524  0.63550380    -0.20430
F445        F  0.18130379  0.44708158  0.59268332    -0.20110
F446        F  0.02772637  0.42477634  0.57862644    -0.20160
F447        F  0.04490807  0.38207775  0.55393801    -0.20480
F448        F  0.04027841  0.42205024  0.52107721    -0.23160
C449        C  0.12044777  0.42009949  0.88907376    -0.05990
C450        C  0.13233385  0.44758124  0.88363284    -0.00070
C451        C  0.13417035  0.45479227  0.84655579    -0.08640
C452        C  0.11890690  0.43754420  0.81663908    -0.06020
C453        C  0.10072072  0.41454401  0.82306672    -0.00080
C454        C  0.10390045  0.40377088  0.85929480    -0.08550
C455        C  0.08851776  0.37620575  0.86653413     0.61830
H456        H  0.12003430  0.41413304  0.91757772     0.12520
H457        H  0.11694680  0.44530747  0.78858164     0.12540
C458        C  0.14791739  0.48333304  0.83888977     0.62060
F459        F  0.09475148  0.36892781  0.90350614    -0.23100
F460        F  0.09744720  0.35298844  0.84422090    -0.20430
F461        F  0.05903497  0.38010697  0.85812733    -0.20110
F462        F  0.17478348  0.98582759  0.86014746    -0.20160
F463        F  0.13087341  0.50717784  0.84808979    -0.20480
F464        F  0.15131886  0.48424696  0.80154420    -0.23160
C465        C  0.45851914  0.39189541  0.57940727    -0.05990
C466        C  0.46495748  0.39629645  0.61850150    -0.00070
C467        C  0.44294333  0.40879665  0.63779560    -0.08640
C468        C  0.41997085  0.42455443  0.61793643    -0.06020
C469        C  0.41637661  0.42512585  0.57875724    -0.00080
C470        C  0.43327879  0.40447729  0.55960278    -0.08550
C471        C  0.42460911  0.39432562  0.51900053     0.61830
H472        H  0.97346979  0.37933231  0.56415872     0.12520
H473        H  0.40633572  0.43872688  0.63345092     0.12540
C474        C  0.44366485  0.40756877  0.67938398     0.62060
F475        F  0.91776424  0.36469851  0.51721545    -0.23100
F476        F  0.44707681  0.39745160  0.49873430    -0.20430
F477        F  0.40084762  0.40975541  0.50262524    -0.20110
F478        F  0.45062144  0.43508228  0.69526813    -0.20160
F479        F  0.46337352  0.38699208  0.69484410    -0.20480
F480        F  0.41679438  0.40025839  0.68732372    -0.23160
C481        C  0.44672640  0.40684841  0.82217422    -0.05990
C482        C  0.47042126  0.42582657  0.82382103    -0.00070
C483        C  0.46985682  0.45307841  0.84618465    -0.08640
C484        C  0.44511193  0.46138089  0.86201221    -0.06020
C485        C  0.42211582  0.44242493  0.86155562    -0.00080
C486        C  0.42300445  0.41438450  0.84191191    -0.08550
C487        C  0.39839395  0.39325244  0.84107781     0.61830
H488        H  0.44668106  0.38639220  0.80506363     0.12520
H489        H  0.44454066  0.48260300  0.87726744     0.12540
C490        C  0.99503477  0.47435833  0.85468926     0.62060
F491        F  0.40191012  0.36792699  0.81870224    -0.23100
F492        F  0.37284483  0.40704289  0.82710370    -0.20430
F493        F  0.39667295  0.38507082  0.87693846    -0.20110
F494        F  0.99274325  0.49452397  0.82775147    -0.20160
F495        F  0.02141408  0.45978844  0.85630464    -0.20480
F496        F  0.99459640  0.49006942  0.88862214    -0.23160
C497        C  0.08118400  0.10256473  0.61081061    -0.05990
C498        C  0.10220959  0.08050884  0.62146917    -0.00070
C499        C  0.10551077  0.07260439  0.65939198    -0.08640
C500        C  0.08498452  0.08319567  0.68264918    -0.06020
C501        C  0.06231853  0.10279605  0.67045475    -0.00080
C502        C  0.06190077  0.11443618  0.63492406    -0.08550
C503        C  0.04165577  0.13974236  0.62283586     0.61830
H504        H  0.07949080  0.11028469  0.58280808     0.12520
H505        H  0.08612969  0.07570312  0.71060384     0.12540
C506        C  0.13015798  0.05285165  0.67536384     0.62060
F507        F  0.04573772  0.14905125  0.58819575    -0.23100
F508        F  0.04652711  0.16347470  0.64872337    -0.20430
F509        F  0.01342236  0.13130148  0.62056956    -0.20110
F510        F  0.15601765  0.06408771  0.66874170    -0.20160
F511        F  0.12666755  0.02457274  0.65891408    -0.20480
F512        F  0.13161188  0.05127024  0.71370670    -0.23160
C513        C  0.06797770  0.12091828  0.90237758    -0.05990
C514        C  0.06488040  0.11998199  0.86325284    -0.00070
C515        C  0.08763802  0.10687794  0.84580175    -0.08640
C516        C  0.10721965  0.08741374  0.86618534    -0.06020
C517        C  0.10721563  0.08419545  0.90473491    -0.00080
C518        C  0.08916870  0.10390618  0.92361057    -0.08550
C519        C  0.09036247  0.10757262  0.96571112     0.61830
H520        H  0.05273213  0.13400378  0.91656079     0.12520
H521        H  0.12205982  0.07390326  0.85185428     0.12540
C522        C  0.09343030  0.11642818  0.80816821     0.62060
F523        F  0.09640794  0.13672426  0.97715398    -0.23100
F524        F  0.11121018  0.09010005  0.98457067    -0.20430
F525        F  0.06397361  0.10088338  0.97564384    -0.20110
F526        F  0.09870212  0.14644556  0.81104293    -0.20160
F527        F  0.07022514  0.11116402  0.78110383    -0.20480
F528        F  0.11721024  0.10187324  0.79669359    -0.23160
C529        C  0.40659516  0.08612105  0.61191238    -0.05990
C530        C  0.42465880  0.06171894  0.60443827    -0.00070
C531        C  0.45348497  0.06328604  0.62240441    -0.08640
C532        C  0.46513936  0.09091298  0.63324084    -0.06020
C533        C  0.44816352  0.11218911  0.64954036    -0.00080
C534        C  0.41768655  0.10986152  0.63809471    -0.08550
C535        C  0.39764364  0.13252295  0.65332178     0.61830
H536        H  0.38425185  0.08585453  0.59929273     0.12520
H537        H  0.48800261  0.09182587  0.63978945     0.12540
C538        C  0.47124206  0.03611259  0.63453171     0.62060
F539        F  0.36929606  0.12780712  0.63778931    -0.23100
F540        F  0.40527774  0.16048006  0.64522334    -0.20310
F541        F  0.39967219  0.13111937  0.69173118    -0.20110
F542        F  0.49328560  0.03126892  0.61344175    -0.20160
F543        F  0.45466052  0.01104091  0.63193391    -0.20480
F544        F  0.48303294  0.04047038  0.67147348    -0.23160
C545        C  0.42190283  0.10506891  0.89589943    -0.05990
C546        C  0.45128111  0.10327110  0.89197356    -0.00070
C547        C  0.46662049  0.07763928  0.90469201    -0.08640
C548        C  0.45192516  0.05340895  0.91556983    -0.06020
C549        C  0.42217244  0.05423355  0.91738893    -0.00080
C550        C  0.40739259  0.08182369  0.91014301    -0.08550
C551        C  0.37649630  0.08724068  0.91705682     0.61830
H552        H  0.40992406  0.12440048  0.88585153     0.12520
H553        H  0.46425022  0.03362376  0.92321175     0.12540
C554        C  0.49884271  0.07513699  0.90831294     0.62060
F555        F  0.36790730  0.11638075  0.91233605    -0.23100
F556        F  0.37393020  0.08120382  0.95352077    -0.20430
F557        F  0.35813100  0.06952844  0.89230940    -0.20110
F558        F  0.51114637  0.10155384  0.90363920    -0.20160
F559        F  0.50704024  0.05371299  0.88288066    -0.20480
F560        F  0.50899798  0.06749545  0.94394960    -0.23160
C561        C  0.49507466  0.27742926  0.72382810    -0.05990
C562        C  0.01958772  0.29267052  0.74129308    -0.00070
C563        C  0.04037552  0.27789304  0.76631709    -0.08640
C564        C  0.03572672  0.24830619  0.77332584    -0.06020
C565        C  0.01127156  0.23320792  0.75585160    -0.00080
C566        C  0.49038474  0.24787058  0.73103562    -0.08550
C567        C  0.46306567  0.23244090  0.71301840     0.61830
H568        H  0.47956659  0.28895916  0.70446855     0.12520
H569        H  0.05113972  0.23666216  0.79268908     0.12540
C570        C  0.06743799  0.29317747  0.78522335     0.62060
F571        F  0.44485418  0.25106860  0.69125967    -0.23100
F572        F  0.44839081  0.22277197  0.74051181    -0.20430
F573        F  0.46995416  0.20842112  0.69036017    -0.20110
F574        F  0.05988649  0.31576212  0.80945970    -0.20160
F575        F  0.08194277  0.30462471  0.75867257    -0.20480
F576        F  0.08604872  0.27404597  0.80564138    -0.23160
C577        C  0.00029111  0.49145127  0.71605073    -0.05990
C578        C  0.02973246  0.49848823  0.71962460    -0.00070
C579        C  0.04193525  0.01845457  0.74879942    -0.08640
C580        C  0.02451357  0.03027978  0.77407729    -0.06020
C581        C  0.49495885  0.02482582  0.76859769    -0.00080
C582        C  0.48275565  0.00392386  0.74106529    -0.08550
C583        C  0.45161708  0.49409983  0.73860973     0.61830
H584        H  0.49137607  0.47469162  0.69522454     0.12520
H585        H  0.03359427  0.04577210  0.79647588     0.12540
C586        C  0.07394532  0.02448931  0.75634980     0.62060
F587        F  0.45140094  0.46624925  0.75189519    -0.23100
F588        F  0.43837634  0.99369452  0.70186047    -0.20430
F589        F  0.43519454  0.51194901  0.75999289    -0.20110
F590        F  0.08641415  0.02003670  0.72399378    -0.20160
F591        F  0.08706020  0.00588852  0.78281455    -0.20480
F592        F  0.07874941  0.05332747  0.76990300    -0.23160
O593        O  0.46417743  0.56178775  0.25191046    -0.81110
O594        O  0.01010650  0.68139045  0.24271338    -0.65800
O595        O  0.00686832  0.59957903  0.25996392    -1.12400
C596        C  0.46154616  0.62021218  0.36185573     1.05780
O597        O  0.00089228  0.70009527  0.29942172    -0.79000
O598        O  0.02963745  0.65535078  0.33732028    -0.66580
Ni599      Ni  0.99097977  0.57338565  0.22157502     1.34870
C600        C  0.03606147  0.62839109  0.34236951     0.84520
O601        O  0.03689397  0.63091355  0.21554849    -0.79540
O602        O  0.01985664  0.58626415  0.19161102    -0.89820
C603        C  0.00715322  0.70289999  0.26647185     0.84090
O604        O  0.45928451  0.59886972  0.20979878    -0.68020
O605        O  0.47889835  0.64210530  0.36704454    -0.87310
C606        C  0.46100968  0.61935716  0.18942619     0.84920
C607        C  0.03809292  0.60743565  0.19367831     1.06490
H608        H  0.46122232  0.64981395  0.27179694     0.38290
O609        O  0.48015280  0.64473678  0.28425593    -1.09970
O610        O  0.01707479  0.60825523  0.33368917    -0.66620
Ni611      Ni  0.48194953  0.60456745  0.29664006     1.26350
O612        O  0.47973661  0.63906259  0.20099670    -0.66850
O613        O  0.45458998  0.60929935  0.32955574    -0.79140
C614        C  0.47708158  0.54889050  0.27894511     0.84300
O615        O  0.48435795  0.56432623  0.30828172    -0.66320
Ni616      Ni  0.49033363  0.66948075  0.32983441     1.27450
Ni617      Ni  0.00802614  0.63992203  0.24861432     1.26060
H618        H  0.02539595  0.59209743  0.27037363     0.38850
O619        O  0.02253227  0.82584459  0.19427798    -0.81110
O620        O  0.04003899  0.95997629  0.17786088    -0.65800
O621        O  0.04895747  0.87995415  0.20331554    -1.12400
C622        C  0.49278010  0.92096742  0.29765435     1.05780
O623        O  0.06176585  0.96171314  0.23377921    -0.79000
O624        O  0.05925614  0.93833893  0.29813969    -0.66580
Ni625      Ni  0.04192464  0.85021047  0.16324398     1.34870
C626        C  0.07231770  0.91385848  0.29854028     0.84520
O627        O  0.06931244  0.91665503  0.15407023    -0.79540
O628        O  0.06310594  0.87094858  0.12871927    -0.89820
C629        C  0.04821425  0.97514158  0.20736101     0.84090
O630        O  0.00476411  0.86461691  0.14076085    -0.68020
O631        O  0.50223668  0.94521153  0.28844347    -0.87310
C632        C  0.49493559  0.89091044  0.13827636     0.84920
C633        C  0.07423202  0.89676721  0.13033966     1.06490
H634        H  0.50123546  0.92622362  0.21774491     0.38290
O635        O  0.02108141  0.92326493  0.22804422    -1.09970
O636        O  0.06220776  0.89119450  0.27851902    -0.66620
Ni637      Ni  0.02572412  0.88507272  0.24418141     1.26350
O638        O  0.00943459  0.91323945  0.15308670    -0.66850
O639        O  0.50128481  0.89503019  0.28492049    -0.79140
C640        C  0.02416519  0.82277692  0.22961067     0.84300
O641        O  0.02883268  0.84414782  0.25446458    -0.66320
Ni642      Ni  0.03201426  0.95476152  0.26204577     1.27450
Ni643      Ni  0.04426179  0.91961416  0.18914771     1.26060
H644        H  0.06887951  0.87733189  0.21391870     0.38850
O645        O  0.06376072  0.54090857  0.45455974    -0.81110
O646        O  0.18800828  0.52277381  0.47632665    -0.65800
O647        O  0.10958563  0.00892990  0.47888488    -1.12400
C648        C  0.11764089  0.56529147  0.09094049     1.05780
O649        O  0.19950694  0.51634155  0.03844361    -0.79000
O650        O  0.15265386  0.99224093  0.06325170    -0.66580
Ni651      Ni  0.08228013  0.00808227  0.43488560     1.34870
C652        C  0.12612259  0.98694993  0.06270184     0.84520
O653        O  0.14770233  0.98861849  0.42920898    -0.79540
O654        O  0.10116821  0.97499687  0.41568526    -0.89820
C655        C  0.20627415  0.51823249  0.50537644     0.84090
O656        O  0.10100645  0.53331276  0.40624308    -0.68020
O657        O  0.13978835  0.54801780  0.09748458    -0.87310
C658        C  0.11648611  0.55484075  0.41976485     0.84920
C659        C  0.12754130  0.97166803  0.41187512     1.06490
H660        H  0.15213731  0.56121988  0.51494401     0.38290
O661        O  0.14697366  0.54135500  0.01936687    -1.09970
O662        O  0.10705877  0.00662645  0.05240071    -0.66620
Ni663      Ni  0.10727838  0.53911326  0.01847613     1.26350
O664        O  0.13741731  0.55137084  0.44622254    -0.66850
O665        O  0.10634234  0.56869285  0.05756871    -0.79140
C666        C  0.05294513  0.53550566  0.48319642     0.84300
O667        O  0.06778032  0.53813778  0.01485062    -0.66320
Ni668      Ni  0.16841337  0.53128172  0.06541700     1.27450
Ni669      Ni  0.14805948  0.51585193  0.47465868     1.26060
H670        H  0.10891080  0.98958948  0.48853740     0.38850
O671        O  0.33104927  0.50750286  0.45260471    -0.81110
O672        O  0.45779468  0.45992041  0.46398683    -0.65800
O673        O  0.37932442  0.97468139  0.46625480    -1.12400
C674        C  0.41889149  0.53753291  0.07366929     1.05780
O675        O  0.45982799  0.45294513  0.02320784    -0.79000
O676        O  0.42854936  0.97413410  0.07619471    -0.66580
Ni677      Ni  0.35916715  0.99019356  0.42232786     1.34870
C678        C  0.41018020  0.95505502  0.06389626     0.84520
O679        O  0.41092943  0.94044785  0.42208702    -0.79540
O680        O  0.38483646  0.97211970  0.38716650    -0.89820
C681        C  0.47254908  0.45531033  0.49518025     0.84090
O682        O  0.38129860  0.52576205  0.42894291    -0.68020
O683        O  0.44225979  0.52799811  0.06327735    -0.87310
C684        C  0.40813171  0.52610543  0.42701805     0.84920
C685        C  0.40299773  0.95037483  0.39046147     1.06490
H686        H  0.42831632  0.51614026  0.99592017     0.38290
O687        O  0.42373698  0.49720225  0.00422073    -1.09970
O688        O  0.38957597  0.96164363  0.03839793    -0.66620
Ni689      Ni  0.38539404  0.49932404  0.01245451     1.26350
O690        O  0.42334877  0.50227008  0.43227661    -0.66850
O691        O  0.39414180  0.52611846  0.05956167    -0.79140
C692        C  0.32604376  0.50692754  0.98668916     0.84300
O693        O  0.34512369  0.50117624  0.01453801    -0.66320
Ni694      Ni  0.45170854  0.49053194  0.04451878     1.27450
Ni695      Ni  0.41836528  0.96836754  0.46324195     1.26060
H696        H  0.37062169  0.95621738  0.47024192     0.38850
C697        C  0.28247102  0.98781536  0.00675317    -0.05990
C698        C  0.29593133  0.51149101  0.99332364    -0.00070
C699        C  0.27989729  0.53748678  0.48384273    -0.08640
C700        C  0.25047405  0.53870440  0.48781716    -0.06020
C701        C  0.23698067  0.51490888  0.50099894    -0.00080
C702        C  0.25304647  0.98892180  0.01045393    -0.08550
C703        C  0.23893089  0.96206052  0.02288222     0.61830
H704        H  0.29512304  0.96803825  0.01338596     0.12520
H705        H  0.23774967  0.55837829  0.48090262     0.12540
C706        C  0.29398606  0.56403515  0.47064399     0.62060
F707        F  0.25761811  0.93796513  0.02607810    -0.23100
F708        F  0.21532909  0.95411199  0.99696417    -0.20430
F709        F  0.23011760  0.96846814  0.05739387    -0.20110
F710        F  0.30247056  0.55717820  0.43602585    -0.20160
F711        F  0.31782228  0.57206513  0.49609957    -0.20480
F712        F  0.27538592  0.58819304  0.46731462    -0.23160
C713        C  0.50348887  0.49333597  0.02428397    -0.05990
C714        C  0.50085970  0.46766074  0.50042303    -0.00070
C715        C  0.01638986  0.96437752  0.46998120    -0.08640
C716        C  0.03034658  0.98908758  0.46054499    -0.06020
C717        C  0.02900095  0.51622350  0.48145266    -0.00080
C718        C  0.01385774  0.51895304  0.01230846    -0.08550
C719        C  0.01071423  0.54823920  0.03468801     0.61830
H720        H  0.49432645  0.49464058  0.05005346     0.12520
H721        H  0.04333170  0.98660874  0.43812552     0.12540
C722        C  0.51846466  0.93478835  0.44808463     0.62060
F723        F  0.98227154  0.55324916  0.03868336    -0.23100
F724        F  0.01927781  0.57235800  0.51752376    -0.20430
F725        F  0.02708926  0.54720805  0.06952962    -0.20110
F726        F  0.50485432  0.93633530  0.41220887    -0.20160
F727        F  0.50558780  0.91221781  0.96359066    -0.20480
F728        F  0.04710779  0.92726927  0.44714142    -0.23160
C729        C  0.12006686  0.91643230  0.11661820    -0.05990
C730        C  0.09178540  0.90761051  0.10289683    -0.00070
C731        C  0.07724192  0.92172740  0.07197098    -0.08640
C732        C  0.08940806  0.94676831  0.05877179    -0.06020
C733        C  0.11667016  0.95755971  0.07467889    -0.00080
C734        C  0.13303333  0.94078824  0.10278583    -0.08550
C735        C  0.16337257  0.94931676  0.11997429     0.61830
H736        H  0.13092772  0.90577325  0.14085669     0.12520
H737        H  0.07694977  0.95884380  0.03684227     0.12540
C738        C  0.04708773  0.91256322  0.05633372     0.62060
F739        F  0.17456372  0.93101102  0.14797130    -0.23100
F740        F  0.16343375  0.47797008  0.13550677    -0.20430
F741        F  0.18130560  0.94708611  0.09268909    -0.20110
F742        F  0.02772885  0.92476664  0.07862628    -0.20160
F743        F  0.04491685  0.88207479  0.05392837    -0.20480
F744        F  0.04028077  0.92205276  0.02107748    -0.23160
C745        C  0.12044698  0.92009850  0.38907151    -0.05990
C746        C  0.13233278  0.94758044  0.38363083    -0.00070
C747        C  0.13416860  0.95479204  0.34655382    -0.08640
C748        C  0.11890430  0.93754468  0.31663717    -0.06020
C749        C  0.10071860  0.91454413  0.32306489    -0.00080
C750        C  0.10389921  0.90377027  0.35929262    -0.08550
C751        C  0.08851725  0.87620460  0.36653165     0.61830
H752        H  0.12003417  0.91413154  0.41757541     0.12520
H753        H  0.11694344  0.94530858  0.28857999     0.12540
C754        C  0.14791488  0.98333325  0.33888792     0.62060
F755        F  0.09475141  0.86892631  0.40350349    -0.23100
F756        F  0.09744709  0.85298784  0.34421790    -0.20430
F757        F  0.05903435  0.88010515  0.35812526    -0.20110
F758        F  0.17478041  0.48582922  0.36014697    -0.20160
F759        F  0.13086951  0.00717739  0.34808628    -0.20480
F760        F  0.15131754  0.98424673  0.30154269    -0.23160
C761        C  0.45852107  0.89189724  0.07940627    -0.05990
C762        C  0.46495931  0.89629586  0.11850073    -0.00070
C763        C  0.44294534  0.90879491  0.13779592    -0.08640
C764        C  0.41997350  0.92455474  0.11793825    -0.06020
C765        C  0.41637884  0.92512778  0.07875899    -0.00080
C766        C  0.43328061  0.90447981  0.05960299    -0.08550
C767        C  0.42461020  0.89432891  0.01900056     0.61830
H768        H  0.97347162  0.87933490  0.06415675     0.12520
H769        H  0.40633801  0.93872566  0.13345401     0.12540
C770        C  0.44366299  0.90755793  0.17938298     0.62060
F771        F  0.91776458  0.86470198  0.01721491    -0.23100
F772        F  0.44707771  0.89745450  0.99873388    -0.20430
F773        F  0.40084898  0.90975945  0.00262605    -0.20110
F774        F  0.45060943  0.93507065  0.19527804    -0.20160
F775        F  0.46337634  0.88698461  0.19484095    -0.20480
F776        F  0.41679332  0.90023535  0.18731356    -0.23160
C777        C  0.44672511  0.90684593  0.32217167    -0.05990
C778        C  0.47041973  0.92582431  0.32381803    -0.00070
C779        C  0.46985558  0.95307596  0.34618210    -0.08640
C780        C  0.44511101  0.96137810  0.36201047    -0.06020
C781        C  0.42211497  0.94242208  0.36155396    -0.00080
C782        C  0.42300344  0.91438177  0.34190995    -0.08550
C783        C  0.39839306  0.89324958  0.34107606     0.61830
H784        H  0.44667965  0.88638984  0.30506082     0.12520
H785        H  0.44453983  0.98260014  0.37726588     0.12540
C786        C  0.99503298  0.97435659  0.35468511     0.62060
F787        F  0.40190913  0.86792426  0.31870022    -0.23100
F788        F  0.37284381  0.90703998  0.32710242    -0.20430
F789        F  0.39667245  0.88506776  0.37693673    -0.20110
F790        F  0.99273974  0.99452230  0.32774714    -0.20160
F791        F  0.02141260  0.95978749  0.35629887    -0.20480
F792        F  0.99459554  0.99006750  0.38861833    -0.23160
C793        C  0.08118317  0.60256650  0.11081094    -0.05990
C794        C  0.10220891  0.58051081  0.12146973    -0.00070
C795        C  0.10551018  0.57260664  0.15939268    -0.08640
C796        C  0.08498402  0.58319812  0.18264988    -0.06020
C797        C  0.06231781  0.60279812  0.17045518    -0.00080
C798        C  0.06189989  0.61443799  0.13492431    -0.08550
C799        C  0.04165486  0.63974414  0.12283598     0.61830
H800        H  0.07948989  0.61028627  0.08280830     0.12520
H801        H  0.08612938  0.57570597  0.21060475     0.12540
C802        C  0.13015723  0.55285375  0.17536461     0.62060
F803        F  0.04573692  0.64905301  0.08819590    -0.23100
F804        F  0.04652608  0.66347649  0.14872347    -0.20430
F805        F  0.01342146  0.63130324  0.12056952    -0.20110
F806        F  0.15601701  0.56408964  0.16874263    -0.20160
F807        F  0.12666661  0.52457490  0.15891476    -0.20480
F808        F  0.13161100  0.55127226  0.21370745    -0.23160
C809        C  0.06797664  0.62091647  0.40237753    -0.05990
C810        C  0.06487912  0.61998028  0.36325277    -0.00070
C811        C  0.08763676  0.60687653  0.34580144    -0.08640
C812        C  0.10721861  0.58741241  0.36618478    -0.06020
C813        C  0.10721493  0.58419406  0.40473439    -0.00080
C814        C  0.08916802  0.60390463  0.42361030    -0.08550
C815        C  0.09036234  0.60757129  0.46571091     0.61830
H816        H  0.05273108  0.63400181  0.41656096     0.12520
H817        H  0.12205881  0.57390212  0.35185352     0.12540
C818        C  0.09342899  0.61642722  0.30816808     0.62060
F819        F  0.09640772  0.63672302  0.47715336    -0.23100
F820        F  0.11121043  0.59009896  0.48457020    -0.20430
F821        F  0.06397375  0.60088194  0.47564435    -0.20110
F822        F  0.09870129  0.64644451  0.31104351    -0.20160
F823        F  0.07022362  0.61116380  0.28110381    -0.20480
F824        F  0.11720861  0.60187207  0.29669284    -0.23160
C825        C  0.40659473  0.58612362  0.11191280    -0.05990
C826        C  0.42465819  0.56172108  0.10443982    -0.00070
C827        C  0.45348427  0.56328812  0.12240612    -0.08640
C828        C  0.46513882  0.59091511  0.13324148    -0.06020
C829        C  0.44816315  0.61219163  0.14954053    -0.00080
C830        C  0.41768622  0.60986449  0.13809439    -0.08550
C831        C  0.39764359  0.63252720  0.15331953     0.61830
H832        H  0.38425156  0.58585735  0.09929256     0.12520
H833        H  0.48800205  0.59182803  0.13978947     0.12540
C834        C  0.47124153  0.53611463  0.13453287     0.62060
F835        F  0.36929605  0.62781166  0.13778669    -0.23100
F836        F  0.40527858  0.66048357  0.14521939    -0.20310
F837        F  0.39967152  0.63112531  0.19172909    -0.20110
F838        F  0.49328488  0.53127121  0.11344257    -0.20160
F839        F  0.45466007  0.51104292  0.13193499    -0.20480
F840        F  0.48303268  0.54047208  0.17147448    -0.23160
C841        C  0.42190175  0.60506675  0.39589911    -0.05990
C842        C  0.45127996  0.60326897  0.39197287    -0.00070
C843        C  0.46661937  0.57763697  0.40469055    -0.08640
C844        C  0.45192410  0.55340642  0.41556782    -0.06020
C845        C  0.42217144  0.55423103  0.41738732    -0.00080
C846        C  0.40739161  0.58182131  0.41014235    -0.08550
C847        C  0.37649549  0.58723823  0.41705694     0.61830
H848        H  0.40992295  0.62439850  0.38585183     0.12520
H849        H  0.46424916  0.53362108  0.42320909     0.12540
C850        C  0.49884158  0.57513473  0.40831127     0.62060
F851        F  0.36790662  0.61637847  0.41233734    -0.23100
F852        F  0.37392977  0.58120059  0.45352074    -0.20430
F853        F  0.35812985  0.56952655  0.39230924    -0.20110
F854        F  0.51114521  0.60155182  0.40363854    -0.20160
F855        F  0.50703905  0.55371135  0.38287817    -0.20480
F856        F  0.50899692  0.56749238  0.44394756    -0.23160
C857        C  0.49507608  0.77742789  0.22382618    -0.05990
C858        C  0.01958838  0.79266955  0.24129274    -0.00070
C859        C  0.04037450  0.77789317  0.26632018    -0.08640
C860        C  0.03572504  0.74830676  0.27333020    -0.06020
C861        C  0.01127077  0.73320797  0.25585418    -0.00080
C862        C  0.49038539  0.74786972  0.23103514    -0.08550
C863        C  0.46306692  0.73243971  0.21301631     0.61830
H864        H  0.47956921  0.78895707  0.20446430     0.12520
H865        H  0.05113690  0.73666345  0.29269567     0.12540
C866        C  0.06743580  0.79317832  0.28522894     0.62060
F867        F  0.44485644  0.75106690  0.19125548    -0.23100
F868        F  0.44839048  0.72277161  0.24050865    -0.20430
F869        F  0.46995650  0.70841937  0.19035976    -0.20110
F870        F  0.05988213  0.81576363  0.30946289    -0.20160
F871        F  0.08194280  0.80462476  0.25867982    -0.20480
F872        F  0.08604531  0.77404764  0.30565014    -0.23160
C873        C  0.00028979  0.99144981  0.21604717    -0.05990
C874        C  0.02973111  0.99848703  0.21962164    -0.00070
C875        C  0.04193326  0.51845425  0.24879574    -0.08640
C876        C  0.02451130  0.53027931  0.27407333    -0.06020
C877        C  0.49495659  0.52482534  0.26859326    -0.00080
C878        C  0.48275361  0.50392361  0.24106014    -0.08550
C879        C  0.45161506  0.99409935  0.23860358     0.61830
H880        H  0.49137526  0.97468917  0.19522193     0.12520
H881        H  0.03359183  0.54577154  0.29647210     0.12540
C882        C  0.07394315  0.52448982  0.25634554     0.62060
F883        F  0.45139896  0.96625137  0.25189652    -0.23100
F884        F  0.43837671  0.49368753  0.20185294    -0.20430
F885        F  0.43519019  0.01195197  0.25997971    -0.20110
F886        F  0.08641088  0.52003966  0.22398838    -0.20160
F887        F  0.08705931  0.50588779  0.28280794    -0.20480
F888        F  0.07874685  0.55332745  0.26990123    -0.23160
O889        O  0.46417928  0.56178741  0.75191313    -0.81110
O890        O  0.01010709  0.68139007  0.74271113    -0.65800
O891        O  0.00686958  0.59957896  0.75996448    -1.12400
C892        C  0.46154744  0.62021387  0.86185603     1.05780
O893        O  0.00089337  0.70009557  0.79941947    -0.79000
O894        O  0.02963869  0.65535209  0.83731939    -0.66580
Ni895      Ni  0.99098126  0.57338439  0.72157667     1.34870
C896        C  0.03606277  0.62839254  0.84236939     0.84520
O897        O  0.03689460  0.63091234  0.71554731    -0.79540
O898        O  0.01985765  0.58626226  0.69161159    -0.89820
C899        C  0.00715412  0.70289990  0.76646944     0.84090
O900        O  0.45928563  0.59886755  0.70979865    -0.68020
O901        O  0.47889961  0.64210702  0.86704426    -0.87310
C902        C  0.46101047  0.61935496  0.68942584     0.84920
C903        C  0.03809372  0.60743390  0.69367802     1.06490
H904        H  0.46122332  0.64981397  0.77179628     0.38290
O905        O  0.48015389  0.64473709  0.78425524    -1.09970
O906        O  0.01707611  0.60825664  0.83368969    -0.66620
Ni907      Ni  0.48195090  0.60456815  0.79664077     1.26350
O908        O  0.47973706  0.63906089  0.70099598    -0.66850
O909        O  0.45459128  0.60930064  0.82955627    -0.79140
C910        C  0.47708375  0.54889111  0.77894839     0.84300
O911        O  0.48435984  0.56432753  0.80828437    -0.66320
Ni912      Ni  0.49033480  0.66948177  0.82983315     1.27450
Ni913      Ni  0.00802697  0.63992162  0.74861333     1.26060
H914        H  0.02539731  0.59209777  0.77037446     0.38850
O915        O  0.02252782  0.82584747  0.69427937    -0.81110
O916        O  0.04003815  0.95997751  0.67786252    -0.65800
O917        O  0.04895678  0.87995520  0.70331669    -1.12400
C918        C  0.49278221  0.92096925  0.79765812     1.05780
O919        O  0.06176722  0.96171393  0.73377994    -0.79000
O920        O  0.05925917  0.93833984  0.79814110    -0.66580
Ni921      Ni  0.04192310  0.85021095  0.66324594     1.34870
C922        C  0.07231987  0.91385893  0.79854192     0.84520
O923        O  0.06930833  0.91665579  0.65406726    -0.79540
O924        O  0.06310684  0.87094691  0.62872224    -0.89820
C925        C  0.04821484  0.97514262  0.70736245     0.84090
O926        O  0.00476372  0.86461843  0.64075969    -0.68020
O927        O  0.50223975  0.94521319  0.78844791    -0.87310
C928        C  0.49493383  0.89091166  0.63827765     0.84920
C929        C  0.07423017  0.89676662  0.63033946     1.06490
H930        H  0.50123651  0.92622533  0.71774993     0.38290
O931        O  0.02108271  0.92326628  0.72804767    -1.09970
O932        O  0.06220911  0.89119502  0.77852105    -0.66620
Ni933      Ni  0.02572489  0.88507393  0.74418411     1.26350
O934        O  0.00943168  0.91324072  0.65309071    -0.66850
O935        O  0.50128623  0.89503182  0.78492388    -0.79140
C936        C  0.02416373  0.82277842  0.72961203     0.84300
O937        O  0.02883307  0.84414870  0.75446655    -0.66320
Ni938      Ni  0.03201667  0.95476279  0.76204853     1.27450
Ni939      Ni  0.04426068  0.91961521  0.68914857     1.26060
H940        H  0.06887902  0.87733308  0.71391907     0.38850
O941        O  0.06376079  0.54090958  0.95456055    -0.81110
O942        O  0.18800880  0.52277567  0.97632812    -0.65800
O943        O  0.10958611  0.00893139  0.97888590    -1.12400
C944        C  0.11764136  0.56528948  0.59093976     1.05780
O945        O  0.19950648  0.51633822  0.53844177    -0.79000
O946        O  0.15265291  0.99223844  0.56325023    -0.66580
Ni947      Ni  0.08228063  0.00808346  0.93488656     1.34870
C948        C  0.12612155  0.98694803  0.56270069     0.84520
O949        O  0.14770317  0.98861972  0.92921061    -0.79540
O950        O  0.10116903  0.97499825  0.91568627    -0.89820
C951        C  0.20627464  0.51823509  0.00537820     0.84090
O952        O  0.10100666  0.53331424  0.90624401    -0.68020
O953        O  0.13978865  0.54801550  0.59748360    -0.87310
C954        C  0.11648656  0.55484213  0.91976558     0.84920
C955        C  0.12754220  0.97166924  0.91187663     1.06490
H956        H  0.15213718  0.56122194  0.01494465     0.38290
O957        O  0.14697356  0.54135295  0.51936594    -1.09970
O958        O  0.10705813  0.00662495  0.55239974    -0.66620
Ni959      Ni  0.10727825  0.53911172  0.51847528     1.26350
O960        O  0.13741778  0.55137222  0.94622324    -0.66850
O961        O  0.10634273  0.56869115  0.55756808    -0.79140
C962        C  0.05294529  0.53550668  0.98319731     0.84300
O963        O  0.06778010  0.53813681  0.51484978    -0.66320
Ni964      Ni  0.16841326  0.53127892  0.56541570     1.27450
Ni965      Ni  0.14805998  0.51585360  0.97465993     1.26060
H966        H  0.10891136  0.98959099  0.98853849     0.38850
O967        O  0.33105009  0.50750577  0.95260674    -0.81110
O968        O  0.45779511  0.45992284  0.96398931    -0.65800
O969        O  0.37932489  0.97468364  0.96625650    -1.12400
C970        C  0.41889180  0.53753068  0.57366772     1.05780
O971        O  0.45982768  0.45294270  0.52320528    -0.79000
O972        O  0.42854914  0.97413137  0.57619221    -0.66580
Ni973      Ni  0.35916790  0.99019637  0.92232977     1.34870
C974        C  0.41017936  0.95505287  0.56389375     0.84520
O975        O  0.41093020  0.94045051  0.92208867    -0.79540
O976        O  0.38483722  0.97212252  0.88716831    -0.89820
C977        C  0.47254937  0.45531245  0.99518274     0.84090
O978        O  0.38129956  0.52576480  0.92894508    -0.68020
O979        O  0.44226003  0.52799541  0.56327603    -0.87310
C980        C  0.40813265  0.52610806  0.92702005     0.84920
C981        C  0.40299855  0.95037766  0.89046318     1.06490
H982        H  0.42831633  0.51613793  0.49591809     0.38290
O983        O  0.42373678  0.49719999  0.50421868    -1.09970
O984        O  0.38957512  0.96164198  0.53839584    -0.66620
Ni985      Ni  0.38539380  0.49932222  0.51245253     1.26350
O986        O  0.42334961  0.50227265  0.93227876    -0.66850
O987        O  0.39414192  0.52611677  0.55955969    -0.79140
C988        C  0.32604324  0.50692522  0.48668729     0.84300
O989        O  0.34512341  0.50117472  0.51453623    -0.66320
Ni990      Ni  0.45170838  0.49052937  0.54451665     1.27450
Ni991      Ni  0.41836578  0.96836997  0.96324389     1.26060
H992        H  0.37062212  0.95621958  0.97024328     0.38850
C993        C  0.28246992  0.98781180  0.50674835    -0.05990
C994        C  0.29593082  0.51148841  0.49332185    -0.00070
C995        C  0.27989731  0.53748865  0.98384218    -0.08640
C996        C  0.25047407  0.53870619  0.98781656    -0.06020
C997        C  0.23698123  0.51491153  0.00100103    -0.00080
C998        C  0.25304527  0.98891817  0.51044867    -0.08550
C999        C  0.23892885  0.96205584  0.52287290     0.61830
H1000       H  0.29512153  0.96803404  0.51337899     0.12520
H1001       H  0.23774927  0.55837942  0.98089997     0.12540
C1002       C  0.29398555  0.56403649  0.97064132     0.62060
F1003       F  0.25761566  0.93796003  0.52606662    -0.23100
F1004       F  0.21532747  0.95410933  0.49695304    -0.20430
F1005       F  0.23011468  0.96846091  0.55738454    -0.20110
F1006       F  0.30246951  0.55717833  0.93602314    -0.20160
F1007       F  0.31782202  0.57206751  0.99609589    -0.20480
F1008       F  0.27538517  0.58819414  0.96731102    -0.23160
C1009       C  0.50348817  0.49333445  0.52428191    -0.05990
C1010       C  0.50086024  0.46766210  0.00042546    -0.00070
C1011       C  0.01639002  0.96437856  0.96998328    -0.08640
C1012       C  0.03034678  0.98908846  0.96054661    -0.06020
C1013       C  0.02900106  0.51622467  0.98145375    -0.00080
C1014       C  0.01385748  0.51895157  0.51230722    -0.08550
C1015       C  0.01071428  0.54823752  0.53468738     0.61830
H1016       H  0.49432583  0.49463874  0.55005144     0.12520
H1017       H  0.04333190  0.98660940  0.93812711     0.12540
C1018       C  0.51846365  0.93478939  0.94808638     0.62060
F1019       F  0.98227179  0.55324740  0.53868378    -0.23100
F1020       F  0.01927823  0.57235949  0.01752448    -0.20430
F1021       F  0.02708995  0.54720609  0.56952855    -0.20110
F1022       F  0.50485102  0.93633621  0.91221175    -0.20160
F1023       F  0.50558758  0.91221673  0.46358722    -0.20480
F1024       F  0.04710635  0.92727022  0.94713997    -0.23160
C1025       C  0.12006523  0.91642958  0.61661570    -0.05990
C1026       C  0.09178315  0.90760911  0.60289576    -0.00070
C1027       C  0.07723909  0.92172721  0.57197116    -0.08640
C1028       C  0.08940532  0.94676821  0.55877248    -0.06020
C1029       C  0.11666845  0.95755804  0.57467780    -0.00080
C1030       C  0.13303200  0.94078529  0.60278315    -0.08550
C1031       C  0.16337203  0.94931227  0.61996996     0.61830
H1032       H  0.13092648  0.90576973  0.64085331     0.12520
H1033       H  0.07694637  0.95884473  0.53684448     0.12540
C1034       C  0.04708356  0.91256576  0.55633632     0.62060
F1035       F  0.17456356  0.93100540  0.64796553    -0.23100
F1036       F  0.16343484  0.47796523  0.63550384    -0.20430
F1037       F  0.18130378  0.94708160  0.59268327    -0.20110
F1038       F  0.02772636  0.92477630  0.57862655    -0.20160
F1039       F  0.04490806  0.88207778  0.55393796    -0.20480
F1040       F  0.04027833  0.92205033  0.52107729    -0.23160
C1041       C  0.12044777  0.92009949  0.88907378    -0.05990
C1042       C  0.13233384  0.94758124  0.88363284    -0.00070
C1043       C  0.13417033  0.95479226  0.84655579    -0.08640
C1044       C  0.11890688  0.93754420  0.81663909    -0.06020
C1045       C  0.10072070  0.91454401  0.82306674    -0.00080
C1046       C  0.10390044  0.90377088  0.85929482    -0.08550
C1047       C  0.08851776  0.87620574  0.86653416     0.61830
H1048       H  0.12003431  0.91413304  0.91757774     0.12520
H1049       H  0.11694677  0.94530746  0.78858165     0.12540
C1050       C  0.14791738  0.98333304  0.83888976     0.62060
F1051       F  0.09475148  0.86892781  0.90350618    -0.23100
F1052       F  0.09744719  0.85298844  0.84422094    -0.20430
F1053       F  0.05903496  0.88010696  0.85812738    -0.20110
F1054       F  0.17478351  0.48582758  0.86014747    -0.20160
F1055       F  0.13087338  0.00717784  0.84808976    -0.20480
F1056       F  0.15131885  0.98424694  0.80154419    -0.23160
C1057       C  0.45851908  0.89189539  0.57940723    -0.05990
C1058       C  0.46495743  0.89629644  0.61850145    -0.00070
C1059       C  0.44294329  0.90879664  0.63779556    -0.08640
C1060       C  0.41997080  0.92455442  0.61793639    -0.06020
C1061       C  0.41637657  0.92512584  0.57875721    -0.00080
C1062       C  0.43327873  0.90447729  0.55960275    -0.08550
C1063       C  0.42460905  0.89432562  0.51900050     0.61830
H1064       H  0.97346983  0.87933233  0.56415876     0.12520
H1065       H  0.40633569  0.93872687  0.63345089     0.12540
C1066       C  0.44366482  0.90756878  0.67938394     0.62060
F1067       F  0.91776428  0.86469853  0.51721549    -0.23100
F1068       F  0.44707675  0.89745161  0.49873426    -0.20430
F1069       F  0.40084755  0.90975541  0.50262522    -0.20110
F1070       F  0.45062143  0.93508229  0.69526808    -0.20160
F1071       F  0.46337349  0.88699209  0.69484407    -0.20480
F1072       F  0.41679436  0.90025842  0.68732371    -0.23160
C1073       C  0.44672639  0.90684842  0.82217421    -0.05990
C1074       C  0.47042124  0.92582657  0.82382103    -0.00070
C1075       C  0.46985681  0.95307841  0.84618466    -0.08640
C1076       C  0.44511193  0.96138088  0.86201223    -0.06020
C1077       C  0.42211581  0.94242493  0.86155563    -0.00080
C1078       C  0.42300444  0.91438451  0.84191191    -0.08550
C1079       C  0.39839393  0.89325245  0.84107780     0.61830
H1080       H  0.44668104  0.88639221  0.80506361     0.12520
H1081       H  0.44454065  0.98260300  0.87726747     0.12540
C1082       C  0.99503474  0.97435833  0.85468920     0.62060
F1083       F  0.40191010  0.86792701  0.81870222    -0.23100
F1084       F  0.37284481  0.90704290  0.82710370    -0.20430
F1085       F  0.39667293  0.88507082  0.87693845    -0.20110
F1086       F  0.99274320  0.99452397  0.82775141    -0.20160
F1087       F  0.02141405  0.95978845  0.85630458    -0.20480
F1088       F  0.99459638  0.99006942  0.88862208    -0.23160
C1089       C  0.08118401  0.60256470  0.61081063    -0.05990
C1090       C  0.10220959  0.58050881  0.62146919    -0.00070
C1091       C  0.10551077  0.57260435  0.65939200    -0.08640
C1092       C  0.08498451  0.58319564  0.68264920    -0.06020
C1093       C  0.06231852  0.60279602  0.67045476    -0.00080
C1094       C  0.06190077  0.61443615  0.63492407    -0.08550
C1095       C  0.04165577  0.63974234  0.62283588     0.61830
H1096       H  0.07949081  0.61028467  0.58280810     0.12520
H1097       H  0.08612969  0.57570308  0.71060385     0.12540
C1098       C  0.13015798  0.55285161  0.67536386     0.62060
F1099       F  0.04573772  0.64905122  0.58819578    -0.23100
F1100       F  0.04652711  0.66347467  0.64872339    -0.20430
F1101       F  0.01342236  0.63130145  0.62056958    -0.20110
F1102       F  0.15601765  0.56408768  0.66874173    -0.20160
F1103       F  0.12666756  0.52457270  0.65891409    -0.20480
F1104       F  0.13161187  0.55127020  0.71370671    -0.23160
C1105       C  0.06797770  0.62091827  0.90237760    -0.05990
C1106       C  0.06488040  0.61998198  0.86325285    -0.00070
C1107       C  0.08763802  0.60687793  0.84580176    -0.08640
C1108       C  0.10721965  0.58741373  0.86618535    -0.06020
C1109       C  0.10721563  0.58419544  0.90473492    -0.00080
C1110       C  0.08916870  0.60390617  0.92361058    -0.08550
C1111       C  0.09036247  0.60757261  0.96571113     0.61830
H1112       H  0.05273214  0.63400378  0.91656081     0.12520
H1113       H  0.12205982  0.57390325  0.85185429     0.12540
C1114       C  0.09343030  0.61642817  0.80816822     0.62060
F1115       F  0.09640795  0.63672426  0.97715399    -0.23100
F1116       F  0.11121019  0.59010004  0.98457068    -0.20430
F1117       F  0.06397362  0.60088337  0.97564385    -0.20110
F1118       F  0.09870213  0.64644555  0.81104294    -0.20160
F1119       F  0.07022513  0.61116401  0.78110385    -0.20480
F1120       F  0.11721024  0.60187322  0.79669359    -0.23160
C1121       C  0.40659518  0.58612104  0.61191238    -0.05990
C1122       C  0.42465882  0.56171893  0.60443828    -0.00070
C1123       C  0.45348498  0.56328604  0.62240442    -0.08640
C1124       C  0.46513938  0.59091298  0.63324084    -0.06020
C1125       C  0.44816353  0.61218911  0.64954036    -0.00080
C1126       C  0.41768656  0.60986152  0.63809471    -0.08550
C1127       C  0.39764366  0.63252295  0.65332178     0.61830
H1128       H  0.38425187  0.58585453  0.59929274     0.12520
H1129       H  0.48800263  0.59182587  0.63978945     0.12540
C1130       C  0.47124208  0.53611259  0.63453171     0.62060
F1131       F  0.36929608  0.62780712  0.63778931    -0.23100
F1132       F  0.40527776  0.66048006  0.64522334    -0.20310
F1133       F  0.39967221  0.63111937  0.69173119    -0.20110
F1134       F  0.49328561  0.53126892  0.61344175    -0.20160
F1135       F  0.45466054  0.51104090  0.63193391    -0.20480
F1136       F  0.48303297  0.54047037  0.67147348    -0.23160
C1137       C  0.42190285  0.60506891  0.89589944    -0.05990
C1138       C  0.45128113  0.60327110  0.89197356    -0.00070
C1139       C  0.46662050  0.57763928  0.90469201    -0.08640
C1140       C  0.45192518  0.55340895  0.91556983    -0.06020
C1141       C  0.42217245  0.55423355  0.91738893    -0.00080
C1142       C  0.40739261  0.58182369  0.91014300    -0.08550
C1143       C  0.37649631  0.58724068  0.91705682     0.61830
H1144       H  0.40992407  0.62440048  0.88585153     0.12520
H1145       H  0.46425024  0.53362375  0.92321175     0.12540
C1146       C  0.49884272  0.57513699  0.90831294     0.62060
F1147       F  0.36790732  0.61638075  0.91233605    -0.23100
F1148       F  0.37393022  0.58120382  0.95352076    -0.20430
F1149       F  0.35813101  0.56952845  0.89230940    -0.20110
F1150       F  0.51114638  0.60155384  0.90363919    -0.20160
F1151       F  0.50704025  0.55371298  0.88288066    -0.20480
F1152       F  0.50899799  0.56749545  0.94394960    -0.23160
C1153       C  0.49507465  0.77742926  0.72382807    -0.05990
C1154       C  0.01958775  0.79267049  0.74129310    -0.00070
C1155       C  0.04037554  0.77789301  0.76631710    -0.08640
C1156       C  0.03572674  0.74830616  0.77332584    -0.06020
C1157       C  0.01127158  0.73320790  0.75585161    -0.00080
C1158       C  0.49038474  0.74787058  0.73103559    -0.08550
C1159       C  0.46306567  0.73244088  0.71301837     0.61830
H1160       H  0.47956657  0.78895915  0.70446852     0.12520
H1161       H  0.05113974  0.73666212  0.79268907     0.12540
C1162       C  0.06743802  0.79317743  0.78522334     0.62060
F1163       F  0.44485418  0.75106858  0.69125963    -0.23100
F1164       F  0.44839081  0.72277196  0.74051177    -0.20430
F1165       F  0.46995418  0.70842111  0.69036015    -0.20110
F1166       F  0.05988653  0.81576209  0.80945969    -0.20160
F1167       F  0.08194280  0.80462466  0.75867255    -0.20480
F1168       F  0.08604874  0.77404593  0.80564138    -0.23160
C1169       C  0.00029114  0.99145126  0.71605072    -0.05990
C1170       C  0.02973249  0.99848821  0.71962460    -0.00070
C1171       C  0.04193523  0.51845457  0.74879943    -0.08640
C1172       C  0.02451356  0.53027976  0.77407733    -0.06020
C1173       C  0.49495889  0.52482583  0.76859770    -0.00080
C1174       C  0.48275570  0.50392386  0.74106530    -0.08550
C1175       C  0.45161703  0.99409984  0.73860972     0.61830
H1176       H  0.49137600  0.97469164  0.69522450     0.12520
H1177       H  0.03359427  0.54577207  0.79647592     0.12540
C1178       C  0.07394530  0.52448930  0.75634983     0.62060
F1179       F  0.45140088  0.96624924  0.75189516    -0.23100
F1180       F  0.43837640  0.49369450  0.70186048    -0.20430
F1181       F  0.43519450  0.01194901  0.75999289    -0.20110
F1182       F  0.08641415  0.52003665  0.72399383    -0.20160
F1183       F  0.08706017  0.50588853  0.78281461    -0.20480
F1184       F  0.07874939  0.55332747  0.76990298    -0.23160
O1185       O  0.96417741  0.06178776  0.25191045    -0.81110
O1186       O  0.51010650  0.18139046  0.24271336    -0.65800
O1187       O  0.50686832  0.09957904  0.25996390    -1.12400
C1188       C  0.96154615  0.12021218  0.36185573     1.05780
O1189       O  0.50089228  0.20009527  0.29942170    -0.79000
O1190       O  0.52963745  0.15535078  0.33732028    -0.66580
Ni1191     Ni  0.49097977  0.07338565  0.22157501     1.34870
C1192       C  0.53606147  0.12839110  0.34236950     0.84520
O1193       O  0.53689397  0.13091356  0.21554847    -0.79540
O1194       O  0.51985664  0.08626415  0.19161101    -0.89820
C1195       C  0.50715322  0.20290000  0.26647183     0.84090
O1196       O  0.95928450  0.09886973  0.20979877    -0.68020
O1197       O  0.97889834  0.14210530  0.36704454    -0.87310
C1198       C  0.96100968  0.11935717  0.18942618     0.84920
C1199       C  0.53809292  0.10743565  0.19367830     1.06490
H1200       H  0.96122231  0.14981395  0.27179694     0.38290
O1201       O  0.98015279  0.14473679  0.28425593    -1.09970
O1202       O  0.51707479  0.10825524  0.33368916    -0.66620
Ni1203     Ni  0.98194952  0.10456745  0.29664005     1.26350
O1204       O  0.97973660  0.13906260  0.20099670    -0.66850
O1205       O  0.95458997  0.10929936  0.32955574    -0.79140
C1206       C  0.97708156  0.04889051  0.27894510     0.84300
O1207       O  0.98435793  0.06432623  0.30828171    -0.66320
Ni1208     Ni  0.99033363  0.16948075  0.32983441     1.27450
Ni1209     Ni  0.50802614  0.13992204  0.24861431     1.26060
H1210       H  0.52539595  0.09209743  0.27037362     0.38850
O1211       O  0.52253227  0.32584461  0.19427797    -0.81110
O1212       O  0.54003900  0.45997630  0.17786088    -0.65800
O1213       O  0.54895749  0.37995416  0.20331554    -1.12400
C1214       C  0.99278010  0.42096742  0.29765436     1.05780
O1215       O  0.56176588  0.46171315  0.23377920    -0.79000
O1216       O  0.55925619  0.43833892  0.29813968    -0.66580
Ni1217     Ni  0.54192466  0.35021047  0.16324398     1.34870
C1218       C  0.57231774  0.41385847  0.29854028     0.84520
O1219       O  0.56931244  0.41665504  0.15407020    -0.79540
O1220       O  0.56310599  0.37094857  0.12871928    -0.89820
C1221       C  0.54821427  0.47514159  0.20736101     0.84090
O1222       O  0.50476414  0.36461691  0.14076082    -0.68020
O1223       O  0.00223669  0.44521154  0.28844348    -0.87310
C1224       C  0.99493557  0.39091043  0.13827634     0.84920
C1225       C  0.57423205  0.39676721  0.13033965     1.06490
H1226       H  0.00123545  0.42622362  0.21774492     0.38290
O1227       O  0.52108143  0.42326494  0.22804423    -1.09970
O1228       O  0.56220779  0.39119449  0.27851903    -0.66620
Ni1229     Ni  0.52572415  0.38507272  0.24418141     1.26350
O1230       O  0.50943460  0.41323945  0.15308672    -0.66850
O1231       O  0.00128481  0.39503020  0.28492049    -0.79140
C1232       C  0.52416521  0.32277692  0.22961066     0.84300
O1233       O  0.52883270  0.34414782  0.25446457    -0.66320
Ni1234     Ni  0.53201430  0.45476152  0.26204579     1.27450
Ni1235     Ni  0.54426181  0.41961416  0.18914770     1.26060
H1236       H  0.56887953  0.37733190  0.21391869     0.38850
O1237       O  0.56376072  0.04090858  0.45455973    -0.81110
O1238       O  0.68800827  0.02277382  0.47632666    -0.65800
O1239       O  0.60958563  0.50892990  0.47888489    -1.12400
C1240       C  0.61764089  0.06529148  0.09094047     1.05780
O1241       O  0.69950694  0.01634155  0.03844359    -0.79000
O1242       O  0.65265388  0.49224094  0.06325171    -0.66580
Ni1243     Ni  0.58228014  0.50808227  0.43488560     1.34870
C1244       C  0.62612261  0.48694993  0.06270185     0.84520
O1245       O  0.64770234  0.48861849  0.42920899    -0.79540
O1246       O  0.60116822  0.47499687  0.41568527    -0.89820
C1247       C  0.70627413  0.01823250  0.50537645     0.84090
O1248       O  0.60100645  0.03331277  0.40624308    -0.68020
O1249       O  0.63978835  0.04801780  0.09748456    -0.87310
C1250       C  0.61648611  0.05484076  0.41976485     0.84920
C1251       C  0.62754131  0.47166803  0.41187513     1.06490
H1252       H  0.65213729  0.06121988  0.51494402     0.38290
O1253       O  0.64697366  0.04135501  0.01936686    -1.09970
O1254       O  0.60705879  0.50662644  0.05240072    -0.66620
Ni1255     Ni  0.60727838  0.03911328  0.01847612     1.26350
O1256       O  0.63741730  0.05137084  0.44622254    -0.66850
O1257       O  0.60634234  0.06869286  0.05756870    -0.79140
C1258       C  0.55294512  0.03550566  0.48319641     0.84300
O1259       O  0.56778031  0.03813780  0.01485061    -0.66320
Ni1260     Ni  0.66841336  0.03128173  0.06541699     1.27450
Ni1261     Ni  0.64805948  0.01585193  0.47465869     1.26060
H1262       H  0.60891080  0.48958948  0.48853741     0.38850
O1263       O  0.83104926  0.00750287  0.45260473    -0.81110
O1264       O  0.95779467  0.95992042  0.46398684    -0.65800
O1265       O  0.87932442  0.47468139  0.46625480    -1.12400
C1266       C  0.91889149  0.03753292  0.07366928     1.05780
O1267       O  0.95982799  0.95294514  0.02320782    -0.79000
O1268       O  0.92854935  0.47413409  0.07619471    -0.66580
Ni1269     Ni  0.85916716  0.49019356  0.42232787     1.34870
C1270       C  0.91018019  0.45505501  0.06389625     0.84520
O1271       O  0.91092943  0.44044784  0.42208702    -0.79540
O1272       O  0.88483646  0.47211970  0.38716650    -0.89820
C1273       C  0.97254907  0.95531034  0.49518026     0.84090
O1274       O  0.88129859  0.02576205  0.42894292    -0.68020
O1275       O  0.94225979  0.02799812  0.06327734    -0.87310
C1276       C  0.90813170  0.02610544  0.42701805     0.84920
C1277       C  0.90299773  0.45037483  0.39046147     1.06490
H1278       H  0.92831632  0.01614027  0.99592016     0.38290
O1279       O  0.92373698  0.99720225  0.00422072    -1.09970
O1280       O  0.88957597  0.46164363  0.03839792    -0.66620
Ni1281     Ni  0.88539404  0.99932405  0.01245450     1.26350
O1282       O  0.92334876  0.00227008  0.43227661    -0.66850
O1283       O  0.89414180  0.02611847  0.05956165    -0.79140
C1284       C  0.82604376  0.00692755  0.98668914     0.84300
O1285       O  0.84512369  0.00117625  0.01453800    -0.66320
Ni1286     Ni  0.95170854  0.99053194  0.04451877     1.27450
Ni1287     Ni  0.91836529  0.46836753  0.46324196     1.26060
H1288       H  0.87062169  0.45621738  0.47024193     0.38850
C1289       C  0.78247102  0.48781536  0.00675314    -0.05990
C1290       C  0.79593133  0.01149102  0.99332363    -0.00070
C1291       C  0.77989728  0.03748679  0.48384275    -0.08640
C1292       C  0.75047404  0.03870441  0.48781718    -0.06020
C1293       C  0.73698066  0.01490889  0.50099896    -0.00080
C1294       C  0.75304647  0.48892181  0.01045390    -0.08550
C1295       C  0.73893090  0.46206052  0.02288219     0.61830
H1296       H  0.79512304  0.46803825  0.01338592     0.12520
H1297       H  0.73774965  0.05837830  0.48090264     0.12540
C1298       C  0.79398604  0.06403516  0.47064400     0.62060
F1299       F  0.75761811  0.43796513  0.02607806    -0.23100
F1300       F  0.71532910  0.45411200  0.99696413    -0.20430
F1301       F  0.73011761  0.46846814  0.05739384    -0.20110
F1302       F  0.80247055  0.05717821  0.43602586    -0.20160
F1303       F  0.81782227  0.07206514  0.49609959    -0.20480
F1304       F  0.77538591  0.08819305  0.46731464    -0.23160
C1305       C  0.00348886  0.99333599  0.02428394    -0.05990
C1306       C  0.00085969  0.96766075  0.50042303    -0.00070
C1307       C  0.51638987  0.46437751  0.46998121    -0.08640
C1308       C  0.53034660  0.48908757  0.46054500    -0.06020
C1309       C  0.52900093  0.01622351  0.48145264    -0.00080
C1310       C  0.51385774  0.01895306  0.01230844    -0.08550
C1311       C  0.51071422  0.04823923  0.03468799     0.61830
H1312       H  0.99432644  0.99464061  0.05005343     0.12520
H1313       H  0.54333172  0.48660873  0.43812553     0.12540
C1314       C  0.01846466  0.43478834  0.44808463     0.62060
F1315       F  0.48227154  0.05324919  0.03868336    -0.23100
F1316       F  0.51927777  0.07235802  0.51752370    -0.20430
F1317       F  0.52708927  0.04720808  0.06952960    -0.20110
F1318       F  0.00485430  0.43633530  0.41220888    -0.20160
F1319       F  0.00558779  0.41221778  0.96359067    -0.20480
F1320       F  0.54710781  0.42726926  0.44714145    -0.23160
C1321       C  0.62006688  0.41643231  0.11661822    -0.05990
C1322       C  0.59178543  0.40761050  0.10289684    -0.00070
C1323       C  0.57724196  0.42172739  0.07197097    -0.08640
C1324       C  0.58940810  0.44676829  0.05877178    -0.06020
C1325       C  0.61667019  0.45755971  0.07467890    -0.00080
C1326       C  0.63303335  0.44078825  0.10278585    -0.08550
C1327       C  0.66337259  0.44931678  0.11997432     0.61830
H1328       H  0.63092774  0.40577327  0.14085672     0.12520
H1329       H  0.57694981  0.45884378  0.03684226     0.12540
C1330       C  0.54708778  0.41256319  0.05633369     0.62060
F1331       F  0.67456374  0.43101105  0.14797134    -0.23100
F1332       F  0.66343376  0.97797007  0.13550674    -0.20430
F1333       F  0.68130563  0.44708613  0.09268913    -0.20110
F1334       F  0.52772888  0.42476659  0.07862623    -0.20160
F1335       F  0.54491692  0.38207476  0.05392833    -0.20480
F1336       F  0.54028083  0.42205274  0.02107745    -0.23160
C1337       C  0.62044699  0.42009850  0.38907153    -0.05990
C1338       C  0.63233279  0.44758043  0.38363084    -0.00070
C1339       C  0.63416862  0.45479203  0.34655384    -0.08640
C1340       C  0.61890434  0.43754465  0.31663718    -0.06020
C1341       C  0.60071863  0.41454411  0.32306489    -0.00080
C1342       C  0.60389923  0.40377026  0.35929263    -0.08550
C1343       C  0.58851726  0.37620460  0.36653167     0.61830
H1344       H  0.62003416  0.41413154  0.41757542     0.12520
H1345       H  0.61694350  0.44530855  0.28858000     0.12540
C1346       C  0.64791491  0.48333323  0.33888793     0.62060
F1347       F  0.59475141  0.36892631  0.40350350    -0.23100
F1348       F  0.59744711  0.35298783  0.34421793    -0.20430
F1349       F  0.55903436  0.38010515  0.35812525    -0.20110
F1350       F  0.67478042  0.98582920  0.36014697    -0.20160
F1351       F  0.63086954  0.50717737  0.34808629    -0.20480
F1352       F  0.65131756  0.48424671  0.30154271    -0.23160
C1353       C  0.95852105  0.39189723  0.07940625    -0.05990
C1354       C  0.96495929  0.39629585  0.11850072    -0.00070
C1355       C  0.94294532  0.40879490  0.13779590    -0.08640
C1356       C  0.91997348  0.42455473  0.11793824    -0.06020
C1357       C  0.91637882  0.42512778  0.07875897    -0.00080
C1358       C  0.93328059  0.40447980  0.05960297    -0.08550
C1359       C  0.92461018  0.39432890  0.01900055     0.61830
H1360       H  0.47347163  0.37933490  0.06415675     0.12520
H1361       H  0.90633800  0.43872566  0.13345399     0.12540
C1362       C  0.94366298  0.40755793  0.17938297     0.62060
F1363       F  0.41776459  0.36470198  0.01721492    -0.23100
F1364       F  0.94707768  0.39745449  0.99873386    -0.20430
F1365       F  0.90084895  0.40975945  0.00262604    -0.20110
F1366       F  0.95060943  0.43507066  0.19527801    -0.20160
F1367       F  0.96337633  0.38698462  0.19484094    -0.20480
F1368       F  0.91679332  0.40023536  0.18731356    -0.23160
C1369       C  0.94672511  0.40684593  0.32217167    -0.05990
C1370       C  0.97041973  0.42582431  0.32381804    -0.00070
C1371       C  0.96985558  0.45307596  0.34618211    -0.08640
C1372       C  0.94511102  0.46137810  0.36201048    -0.06020
C1373       C  0.92211497  0.44242208  0.36155396    -0.00080
C1374       C  0.92300344  0.41438177  0.34190995    -0.08550
C1375       C  0.89839306  0.39324958  0.34107606     0.61830
H1376       H  0.94667965  0.38638984  0.30506082     0.12520
H1377       H  0.94453983  0.48260014  0.37726589     0.12540
C1378       C  0.49503302  0.47435659  0.35468513     0.62060
F1379       F  0.90190913  0.36792426  0.31870022    -0.23100
F1380       F  0.87284381  0.40703999  0.32710241    -0.20430
F1381       F  0.89667245  0.38506776  0.37693672    -0.20110
F1382       F  0.49273978  0.49452230  0.32774717    -0.20160
F1383       F  0.52141264  0.45978749  0.35629889    -0.20480
F1384       F  0.49459556  0.49006750  0.38861835    -0.23160
C1385       C  0.58118317  0.10256651  0.11081093    -0.05990
C1386       C  0.60220891  0.08051082  0.12146972    -0.00070
C1387       C  0.60551018  0.07260664  0.15939266    -0.08640
C1388       C  0.58498402  0.08319812  0.18264987    -0.06020
C1389       C  0.56231781  0.10279813  0.17045517    -0.00080
C1390       C  0.56189989  0.11443800  0.13492430    -0.08550
C1391       C  0.54165487  0.13974414  0.12283597     0.61830
H1392       H  0.57948989  0.11028628  0.08280829     0.12520
H1393       H  0.58612938  0.07570597  0.21060474     0.12540
C1394       C  0.63015723  0.05285376  0.17536460     0.62060
F1395       F  0.54573692  0.14905302  0.08819590    -0.23100
F1396       F  0.54652608  0.16347650  0.14872346    -0.20430
F1397       F  0.51342147  0.13130325  0.12056951    -0.20110
F1398       F  0.65601701  0.06408965  0.16874262    -0.20160
F1399       F  0.62666661  0.02457491  0.15891474    -0.20480
F1400       F  0.63161100  0.05127227  0.21370744    -0.23160
C1401       C  0.56797663  0.12091648  0.40237753    -0.05990
C1402       C  0.56487911  0.11998029  0.36325276    -0.00070
C1403       C  0.58763676  0.10687654  0.34580143    -0.08640
C1404       C  0.60721861  0.08741241  0.36618478    -0.06020
C1405       C  0.60721492  0.08419407  0.40473439    -0.00080
C1406       C  0.58916801  0.10390464  0.42361030    -0.08550
C1407       C  0.59036233  0.10757129  0.46571090     0.61830
H1408       H  0.55273108  0.13400181  0.41656095     0.12520
H1409       H  0.62205881  0.07390212  0.35185352     0.12540
C1410       C  0.59342899  0.11642722  0.30816807     0.62060
F1411       F  0.59640771  0.13672303  0.47715335    -0.23100
F1412       F  0.61121042  0.09009897  0.48457020    -0.20430
F1413       F  0.56397374  0.10088195  0.47564434    -0.20110
F1414       F  0.59870129  0.14644451  0.31104350    -0.20160
F1415       F  0.57022362  0.11116380  0.28110380    -0.20480
F1416       F  0.61720861  0.10187208  0.29669284    -0.23160
C1417       C  0.90659473  0.08612363  0.11191278    -0.05990
C1418       C  0.92465819  0.06172109  0.10443980    -0.00070
C1419       C  0.95348427  0.06328813  0.12240610    -0.08640
C1420       C  0.96513882  0.09091512  0.13324147    -0.06020
C1421       C  0.94816314  0.11219164  0.14954052    -0.00080
C1422       C  0.91768622  0.10986450  0.13809438    -0.08550
C1423       C  0.89764359  0.13252720  0.15331952     0.61830
H1424       H  0.88425156  0.08585735  0.09929255     0.12520
H1425       H  0.98800204  0.09182804  0.13978946     0.12540
C1426       C  0.97124154  0.03611465  0.13453285     0.62060
F1427       F  0.86929604  0.12781167  0.13778667    -0.23100
F1428       F  0.90527857  0.16048358  0.14521938    -0.20310
F1429       F  0.89967151  0.13112532  0.19172907    -0.20110
F1430       F  0.99328488  0.03127123  0.11344255    -0.20160
F1431       F  0.95466008  0.01104293  0.13193498    -0.20480
F1432       F  0.98303268  0.04047209  0.17147447    -0.23160
C1433       C  0.92190173  0.10506675  0.39589911    -0.05990
C1434       C  0.95127994  0.10326897  0.39197287    -0.00070
C1435       C  0.96661935  0.07763697  0.40469055    -0.08640
C1436       C  0.95192408  0.05340643  0.41556783    -0.06020
C1437       C  0.92217142  0.05423103  0.41738732    -0.00080
C1438       C  0.90739160  0.08182131  0.41014235    -0.08550
C1439       C  0.87649547  0.08723824  0.41705693     0.61830
H1440       H  0.90992294  0.12439850  0.38585182     0.12520
H1441       H  0.96424914  0.03362109  0.42320910     0.12540
C1442       C  0.99884156  0.07513474  0.40831128     0.62060
F1443       F  0.86790661  0.11637847  0.41233732    -0.23100
F1444       F  0.87392975  0.08120060  0.45352073    -0.20430
F1445       F  0.85812983  0.06952655  0.39230923    -0.20110
F1446       F  0.01114520  0.10155182  0.40363854    -0.20160
F1447       F  0.00703904  0.05371135  0.38287818    -0.20480
F1448       F  0.00899690  0.06749238  0.44394757    -0.23160
C1449       C  0.99507607  0.27742788  0.22382616    -0.05990
C1450       C  0.51958839  0.29266955  0.24129273    -0.00070
C1451       C  0.54037451  0.27789317  0.26632017    -0.08640
C1452       C  0.53572505  0.24830676  0.27333019    -0.06020
C1453       C  0.51127077  0.23320798  0.25585417    -0.00080
C1454       C  0.99038539  0.24786971  0.23103512    -0.08550
C1455       C  0.96306692  0.23243970  0.21301629     0.61830
H1456       H  0.97956921  0.28895706  0.20446427     0.12520
H1457       H  0.55113691  0.23666345  0.29269565     0.12540
C1458       C  0.56743582  0.29317831  0.28522892     0.62060
F1459       F  0.94485644  0.25106689  0.19125545    -0.23100
F1460       F  0.94839047  0.22277161  0.24050862    -0.20430
F1461       F  0.96995651  0.20841936  0.19035974    -0.20110
F1462       F  0.55988215  0.31576363  0.30946287    -0.20160
F1463       F  0.58194282  0.30462475  0.25867980    -0.20480
F1464       F  0.58604532  0.27404763  0.30565012    -0.23160
C1465       C  0.50028982  0.49144980  0.21604720    -0.05990
C1466       C  0.52973113  0.49848703  0.21962165    -0.00070
C1467       C  0.54193327  0.01845425  0.24879575    -0.08640
C1468       C  0.52451131  0.03027931  0.27407333    -0.06020
C1469       C  0.99495656  0.02482534  0.26859324    -0.00080
C1470       C  0.98275359  0.00392361  0.24106011    -0.08550
C1471       C  0.95161505  0.49409935  0.23860361     0.61830
H1472       H  0.99137524  0.47468918  0.19522194     0.12520
H1473       H  0.53359184  0.04577155  0.29647210     0.12540
C1474       C  0.57394317  0.02448982  0.25634555     0.62060
F1475       F  0.95139895  0.46625135  0.25189651    -0.23100
F1476       F  0.93837670  0.99368753  0.20185289    -0.20430
F1477       F  0.93519019  0.51195195  0.25997976    -0.20110
F1478       F  0.58641090  0.02003966  0.22398839    -0.20160
F1479       F  0.58705932  0.00588780  0.28280796    -0.20480
F1480       F  0.57874686  0.05332746  0.26990124    -0.23160
O1481       O  0.96417928  0.06178742  0.75191312    -0.81110
O1482       O  0.51010708  0.18139007  0.74271113    -0.65800
O1483       O  0.50686955  0.09957897  0.75996447    -1.12400
C1484       C  0.96154744  0.12021387  0.86185601     1.05780
O1485       O  0.50089335  0.20009557  0.79941948    -0.79000
O1486       O  0.52963867  0.15535208  0.83731938    -0.66580
Ni1487     Ni  0.49098124  0.07338440  0.72157665     1.34870
C1488       C  0.53606275  0.12839254  0.84236938     0.84520
O1489       O  0.53689458  0.13091235  0.71554731    -0.79540
O1490       O  0.51985764  0.08626227  0.69161159    -0.89820
C1491       C  0.50715410  0.20289990  0.76646944     0.84090
O1492       O  0.95928563  0.09886757  0.70979865    -0.68020
O1493       O  0.97889961  0.14210703  0.86704425    -0.87310
C1494       C  0.96101047  0.11935498  0.68942584     0.84920
C1495       C  0.53809371  0.10743390  0.69367802     1.06490
H1496       H  0.96122333  0.14981398  0.77179627     0.38290
O1497       O  0.98015389  0.14473710  0.78425523    -1.09970
O1498       O  0.51707609  0.10825664  0.83368968    -0.66620
Ni1499     Ni  0.98195090  0.10456816  0.79664076     1.26350
O1500       O  0.97973706  0.13906090  0.70099597    -0.66850
O1501       O  0.95459128  0.10930064  0.82955625    -0.79140
C1502       C  0.97708375  0.04889111  0.77894838     0.84300
O1503       O  0.98435984  0.06432753  0.80828435    -0.66320
Ni1504     Ni  0.99033480  0.16948177  0.82983315     1.27450
Ni1505     Ni  0.50802695  0.13992162  0.74861333     1.26060
H1506       H  0.52539728  0.09209777  0.77037445     0.38850
O1507       O  0.52252781  0.32584748  0.69427938    -0.81110
O1508       O  0.54003815  0.45997751  0.67786253    -0.65800
O1509       O  0.54895678  0.37995520  0.70331670    -1.12400
C1510       C  0.99278225  0.42096925  0.79765814     1.05780
O1511       O  0.56176722  0.46171393  0.73377994    -0.79000
O1512       O  0.55925918  0.43833984  0.79814111    -0.66580
Ni1513     Ni  0.54192310  0.35021095  0.66324595     1.34870
C1514       C  0.57231988  0.41385893  0.79854192     0.84520
O1515       O  0.56930832  0.41665579  0.65406726    -0.79540
O1516       O  0.56310685  0.37094690  0.62872226    -0.89820
C1517       C  0.54821484  0.47514262  0.70736245     0.84090
O1518       O  0.50476372  0.36461843  0.64075969    -0.68020
O1519       O  0.00223980  0.44521319  0.78844795    -0.87310
C1520       C  0.99493384  0.39091167  0.63827766     0.84920
C1521       C  0.57423017  0.39676661  0.63033947     1.06490
H1522       H  0.00123654  0.42622534  0.71774996     0.38290
O1523       O  0.52108271  0.42326628  0.72804769    -1.09970
O1524       O  0.56220911  0.39119502  0.77852106    -0.66620
Ni1525     Ni  0.52572489  0.38507394  0.74418412     1.26350
O1526       O  0.50943168  0.41324071  0.65309072    -0.66850
O1527       O  0.00128625  0.39503183  0.78492389    -0.79140
C1528       C  0.52416373  0.32277842  0.72961204     0.84300
O1529       O  0.52883307  0.34414870  0.75446656    -0.66320
Ni1530     Ni  0.53201667  0.45476279  0.76204854     1.27450
Ni1531     Ni  0.54426068  0.41961521  0.68914858     1.26060
H1532       H  0.56887902  0.37733308  0.71391908     0.38850
O1533       O  0.56376079  0.04090960  0.95456054    -0.81110
O1534       O  0.68800879  0.02277568  0.97632810    -0.65800
O1535       O  0.60958612  0.50893138  0.97888591    -1.12400
C1536       C  0.61764135  0.06528948  0.59093976     1.05780
O1537       O  0.69950646  0.01633822  0.53844178    -0.79000
O1538       O  0.65265291  0.49223844  0.56325023    -0.66580
Ni1539     Ni  0.58228064  0.50808344  0.93488656     1.34870
C1540       C  0.62612155  0.48694802  0.56270069     0.84520
O1541       O  0.64770318  0.48861972  0.92921061    -0.79540
O1542       O  0.60116904  0.47499823  0.91568628    -0.89820
C1543       C  0.70627464  0.01823509  0.00537819     0.84090
O1544       O  0.60100666  0.03331425  0.90624399    -0.68020
O1545       O  0.63978863  0.04801551  0.59748360    -0.87310
C1546       C  0.61648655  0.05484214  0.91976557     0.84920
C1547       C  0.62754221  0.47166923  0.91187663     1.06490
H1548       H  0.65213718  0.06122195  0.01494464     0.38290
O1549       O  0.64697354  0.04135296  0.51936594    -1.09970
O1550       O  0.60705813  0.50662495  0.55239974    -0.66620
Ni1551     Ni  0.60727824  0.03911172  0.51847528     1.26350
O1552       O  0.63741778  0.05137223  0.94622323    -0.66850
O1553       O  0.60634271  0.06869115  0.55756808    -0.79140
C1554       C  0.55294529  0.03550670  0.98319730     0.84300
O1555       O  0.56778008  0.03813681  0.51484977    -0.66320
Ni1556     Ni  0.66841325  0.03127892  0.56541570     1.27450
Ni1557     Ni  0.64805997  0.01585361  0.97465992     1.26060
H1558       H  0.60891137  0.48959098  0.98853850     0.38850
O1559       O  0.83105009  0.00750577  0.95260673    -0.81110
O1560       O  0.95779511  0.95992284  0.96398929    -0.65800
O1561       O  0.87932490  0.47468365  0.96625649    -1.12400
C1562       C  0.91889180  0.03753069  0.57366772     1.05780
O1563       O  0.95982767  0.95294271  0.52320528    -0.79000
O1564       O  0.92854915  0.47413137  0.57619221    -0.66580
Ni1565     Ni  0.85916792  0.49019638  0.92232976     1.34870
C1566       C  0.91017937  0.45505286  0.56389375     0.84520
O1567       O  0.91093021  0.44045052  0.92208866    -0.79540
O1568       O  0.88483724  0.47212254  0.88716831    -0.89820
C1569       C  0.97254937  0.95531246  0.99518272     0.84090
O1570       O  0.88129956  0.02576480  0.92894507    -0.68020
O1571       O  0.94226002  0.02799543  0.56327602    -0.87310
C1572       C  0.90813265  0.02610806  0.92702004     0.84920
C1573       C  0.90299857  0.45037767  0.89046318     1.06490
H1574       H  0.92831632  0.01613794  0.49591809     0.38290
O1575       O  0.92373676  0.99720000  0.50421868    -1.09970
O1576       O  0.88957513  0.46164197  0.53839585    -0.66620
Ni1577     Ni  0.88539379  0.99932222  0.51245254     1.26350
O1578       O  0.92334961  0.00227265  0.93227875    -0.66850
O1579       O  0.89414192  0.02611677  0.55955970    -0.79140
C1580       C  0.82604323  0.00692523  0.48668731     0.84300
O1581       O  0.84512340  0.00117473  0.51453624    -0.66320
Ni1582     Ni  0.95170837  0.99052938  0.54451665     1.27450
Ni1583     Ni  0.91836579  0.46836997  0.96324389     1.26060
H1584       H  0.87062212  0.45621959  0.97024327     0.38850
C1585       C  0.78246992  0.48781179  0.50674836    -0.05990
C1586       C  0.79593081  0.01148842  0.49332187    -0.00070
C1587       C  0.77989731  0.03748865  0.98384216    -0.08640
C1588       C  0.75047407  0.03870619  0.98781654    -0.06020
C1589       C  0.73698123  0.01491154  0.00100102    -0.00080
C1590       C  0.75304528  0.48891816  0.51044868    -0.08550
C1591       C  0.73892885  0.46205584  0.52287291     0.61830
H1592       H  0.79512153  0.46803403  0.51337901     0.12520
H1593       H  0.73774927  0.05837942  0.98089994     0.12540
C1594       C  0.79398554  0.06403650  0.97064130     0.62060
F1595       F  0.75761566  0.43796003  0.52606663    -0.23100
F1596       F  0.71532747  0.45410933  0.49695305    -0.20430
F1597       F  0.73011468  0.46846091  0.55738455    -0.20110
F1598       F  0.80246951  0.05717833  0.93602312    -0.20160
F1599       F  0.81782201  0.07206751  0.99609587    -0.20480
F1600       F  0.77538516  0.08819415  0.96731100    -0.23160
C1601       C  0.00348816  0.99333445  0.52428191    -0.05990
C1602       C  0.00086023  0.96766212  0.00042544    -0.00070
C1603       C  0.51639002  0.46437855  0.96998330    -0.08640
C1604       C  0.53034678  0.48908845  0.96054662    -0.06020
C1605       C  0.52900105  0.01622470  0.98145373    -0.00080
C1606       C  0.51385746  0.01895158  0.51230719    -0.08550
C1607       C  0.51071425  0.04823754  0.53468733     0.61830
H1608       H  0.99432582  0.99463874  0.55005144     0.12520
H1609       H  0.54333189  0.48660939  0.93812712     0.12540
C1610       C  0.01846364  0.43478936  0.94808638     0.62060
F1611       F  0.48227175  0.05324741  0.53868371    -0.23100
F1612       F  0.51927823  0.07235952  0.01752446    -0.20430
F1613       F  0.52708990  0.04720612  0.56952851    -0.20110
F1614       F  0.00485098  0.43633619  0.91221176    -0.20160
F1615       F  0.00558758  0.41221672  0.46358723    -0.20480
F1616       F  0.54710633  0.42727021  0.94713992    -0.23160
C1617       C  0.62006523  0.41642957  0.61661570    -0.05990
C1618       C  0.59178315  0.40760911  0.60289577    -0.00070
C1619       C  0.57723909  0.42172721  0.57197117    -0.08640
C1620       C  0.58940532  0.44676821  0.55877250    -0.06020
C1621       C  0.61666845  0.45755803  0.57467781    -0.00080
C1622       C  0.63303200  0.44078528  0.60278315    -0.08550
C1623       C  0.66337203  0.44931226  0.61996996     0.61830
H1624       H  0.63092648  0.40576972  0.64085332     0.12520
H1625       H  0.57694636  0.45884474  0.53684450     0.12540
C1626       C  0.54708356  0.41256576  0.55633634     0.62060
F1627       F  0.67456356  0.43100538  0.64796552    -0.23100
F1628       F  0.66343482  0.97796523  0.63550384    -0.20430
F1629       F  0.68130377  0.44708159  0.59268326    -0.20110
F1630       F  0.52772636  0.42477633  0.57862656    -0.20160
F1631       F  0.54490804  0.38207778  0.55393801    -0.20480
F1632       F  0.54027832  0.42205032  0.52107730    -0.23160
C1633       C  0.62044778  0.42009949  0.88907378    -0.05990
C1634       C  0.63233385  0.44758124  0.88363285    -0.00070
C1635       C  0.63417034  0.45479226  0.84655579    -0.08640
C1636       C  0.61890688  0.43754420  0.81663909    -0.06020
C1637       C  0.60072071  0.41454400  0.82306674    -0.00080
C1638       C  0.60390045  0.40377087  0.85929482    -0.08550
C1639       C  0.58851777  0.37620574  0.86653416     0.61830
H1640       H  0.62003432  0.41413303  0.91757774     0.12520
H1641       H  0.61694677  0.44530746  0.78858165     0.12540
C1642       C  0.64791738  0.48333303  0.83888976     0.62060
F1643       F  0.59475150  0.36892780  0.90350617    -0.23100
F1644       F  0.59744720  0.35298843  0.84422093    -0.20430
F1645       F  0.55903498  0.38010696  0.85812738    -0.20110
F1646       F  0.67478347  0.98582761  0.86014745    -0.20160
F1647       F  0.63087340  0.50717783  0.84808977    -0.20480
F1648       F  0.65131885  0.48424694  0.80154419    -0.23160
C1649       C  0.95851910  0.39189539  0.57940724    -0.05990
C1650       C  0.96495745  0.39629644  0.61850146    -0.00070
C1651       C  0.94294330  0.40879665  0.63779557    -0.08640
C1652       C  0.91997082  0.42455442  0.61793640    -0.06020
C1653       C  0.91637658  0.42512584  0.57875722    -0.00080
C1654       C  0.93327875  0.40447729  0.55960275    -0.08550
C1655       C  0.92460906  0.39432562  0.51900050     0.61830
H1656       H  0.47346984  0.37933232  0.56415876     0.12520
H1657       H  0.90633570  0.43872687  0.63345090     0.12540
C1658       C  0.94366484  0.40756880  0.67938395     0.62060
F1659       F  0.41776429  0.36469852  0.51721549    -0.23100
F1660       F  0.94707676  0.39745161  0.49873427    -0.20430
F1661       F  0.90084757  0.40975540  0.50262522    -0.20110
F1662       F  0.95062145  0.43508232  0.69526807    -0.20160
F1663       F  0.96337352  0.38699211  0.69484409    -0.20480
F1664       F  0.91679438  0.40025844  0.68732373    -0.23160
C1665       C  0.94672641  0.40684843  0.82217421    -0.05990
C1666       C  0.97042128  0.42582659  0.82382104    -0.00070
C1667       C  0.96985684  0.45307842  0.84618468    -0.08640
C1668       C  0.94511196  0.46138090  0.86201224    -0.06020
C1669       C  0.92211584  0.44242495  0.86155563    -0.00080
C1670       C  0.92300446  0.41438452  0.84191190    -0.08550
C1671       C  0.89839395  0.39325247  0.84107778     0.61830
H1672       H  0.94668107  0.38639222  0.80506361     0.12520
H1673       H  0.94454068  0.48260301  0.87726748     0.12540
C1674       C  0.49503474  0.47435833  0.85468922     0.62060
F1675       F  0.90191012  0.36792703  0.81870220    -0.23100
F1676       F  0.87284484  0.40704293  0.82710367    -0.20430
F1677       F  0.89667294  0.38507083  0.87693842    -0.20110
F1678       F  0.49274322  0.49452396  0.82775143    -0.20160
F1679       F  0.52141405  0.45978843  0.85630461    -0.20480
F1680       F  0.49459638  0.49006942  0.88862210    -0.23160
C1681       C  0.58118399  0.10256471  0.61081063    -0.05990
C1682       C  0.60220957  0.08050882  0.62146919    -0.00070
C1683       C  0.60551075  0.07260436  0.65939200    -0.08640
C1684       C  0.58498450  0.08319564  0.68264919    -0.06020
C1685       C  0.56231851  0.10279603  0.67045476    -0.00080
C1686       C  0.56190076  0.11443616  0.63492407    -0.08550
C1687       C  0.54165576  0.13974235  0.62283588     0.61830
H1688       H  0.57949080  0.11028468  0.58280810     0.12520
H1689       H  0.58612967  0.07570308  0.71060385     0.12540
C1690       C  0.63015795  0.05285161  0.67536385     0.62060
F1691       F  0.54573772  0.14905124  0.58819578    -0.23100
F1692       F  0.54652710  0.16347468  0.64872340    -0.20430
F1693       F  0.51342235  0.13130148  0.62056958    -0.20110
F1694       F  0.65601763  0.06408768  0.66874173    -0.20160
F1695       F  0.62666753  0.02457271  0.65891408    -0.20480
F1696       F  0.63161185  0.05127020  0.71370671    -0.23160
C1697       C  0.56797769  0.12091827  0.90237758    -0.05990
C1698       C  0.56488038  0.11998197  0.86325284    -0.00070
C1699       C  0.58763800  0.10687793  0.84580175    -0.08640
C1700       C  0.60721964  0.08741374  0.86618534    -0.06020
C1701       C  0.60721563  0.08419545  0.90473491    -0.00080
C1702       C  0.58916870  0.10390618  0.92361057    -0.08550
C1703       C  0.59036248  0.10757263  0.96571112     0.61830
H1704       H  0.55273212  0.13400377  0.91656080     0.12520
H1705       H  0.62205981  0.07390326  0.85185427     0.12540
C1706       C  0.59343028  0.11642817  0.80816820     0.62060
F1707       F  0.59640794  0.13672427  0.97715397    -0.23100
F1708       F  0.61121020  0.09010006  0.98457067    -0.20430
F1709       F  0.56397362  0.10088338  0.97564385    -0.20110
F1710       F  0.59870210  0.14644555  0.81104292    -0.20160
F1711       F  0.57022510  0.11116401  0.78110384    -0.20480
F1712       F  0.61721021  0.10187322  0.79669357    -0.23160
C1713       C  0.90659517  0.08612105  0.61191239    -0.05990
C1714       C  0.92465881  0.06171894  0.60443828    -0.00070
C1715       C  0.95348498  0.06328605  0.62240442    -0.08640
C1716       C  0.96513937  0.09091299  0.63324084    -0.06020
C1717       C  0.94816353  0.11218912  0.64954036    -0.00080
C1718       C  0.91768656  0.10986153  0.63809472    -0.08550
C1719       C  0.89764365  0.13252296  0.65332179     0.61830
H1720       H  0.88425186  0.08585454  0.59929275     0.12520
H1721       H  0.98800262  0.09182588  0.63978945     0.12540
C1722       C  0.97124208  0.03611260  0.63453171     0.62060
F1723       F  0.86929607  0.12780712  0.63778933    -0.23100
F1724       F  0.90527775  0.16048006  0.64522334    -0.20310
F1725       F  0.89967221  0.13111937  0.69173119    -0.20110
F1726       F  0.99328561  0.03126894  0.61344174    -0.20160
F1727       F  0.95466054  0.01104091  0.63193391    -0.20480
F1728       F  0.98303297  0.04047038  0.67147348    -0.23160
C1729       C  0.92190285  0.10506892  0.89589943    -0.05990
C1730       C  0.95128113  0.10327111  0.89197354    -0.00070
C1731       C  0.96662050  0.07763928  0.90469198    -0.08640
C1732       C  0.95192518  0.05340895  0.91556980    -0.06020
C1733       C  0.92217245  0.05423355  0.91738892    -0.00080
C1734       C  0.90739261  0.08182370  0.91014300    -0.08550
C1735       C  0.87649632  0.08724069  0.91705684     0.61830
H1736       H  0.90992408  0.12440049  0.88585153     0.12520
H1737       H  0.96425023  0.03362375  0.92321171     0.12540
C1738       C  0.99884272  0.07513698  0.90831291     0.62060
F1739       F  0.86790733  0.11638076  0.91233608    -0.23100
F1740       F  0.87393023  0.08120382  0.95352078    -0.20430
F1741       F  0.85813101  0.06952847  0.89230941    -0.20110
F1742       F  0.01114638  0.10155383  0.90363917    -0.20160
F1743       F  0.00704025  0.05371298  0.88288062    -0.20480
F1744       F  0.00899799  0.06749544  0.94394956    -0.23160
C1745       C  0.99507465  0.27742927  0.72382807    -0.05990
C1746       C  0.51958774  0.29267050  0.74129311    -0.00070
C1747       C  0.54037553  0.27789301  0.76631712    -0.08640
C1748       C  0.53572672  0.24830616  0.77332586    -0.06020
C1749       C  0.51127156  0.23320790  0.75585162    -0.00080
C1750       C  0.99038474  0.24787059  0.73103559    -0.08550
C1751       C  0.96306567  0.23244090  0.71301838     0.61830
H1752       H  0.97956658  0.28895917  0.70446852     0.12520
H1753       H  0.55113973  0.23666213  0.79268909     0.12540
C1754       C  0.56743801  0.29317743  0.78522336     0.62060
F1755       F  0.94485418  0.25106860  0.69125964    -0.23100
F1756       F  0.94839081  0.22277198  0.74051178    -0.20430
F1757       F  0.96995417  0.20842113  0.69036015    -0.20110
F1758       F  0.55988651  0.31576209  0.80945971    -0.20160
F1759       F  0.58194279  0.30462466  0.75867258    -0.20480
F1760       F  0.58604873  0.27404593  0.80564141    -0.23160
C1761       C  0.50029114  0.49145126  0.71605073    -0.05990
C1762       C  0.52973249  0.49848821  0.71962461    -0.00070
C1763       C  0.54193520  0.01845457  0.74879941    -0.08640
C1764       C  0.52451352  0.03027976  0.77407730    -0.06020
C1765       C  0.99495889  0.02482583  0.76859768    -0.00080
C1766       C  0.98275570  0.00392386  0.74106529    -0.08550
C1767       C  0.95161707  0.49409983  0.73860977     0.61830
H1768       H  0.99137603  0.47469165  0.69522453     0.12520
H1769       H  0.53359423  0.04577206  0.79647590     0.12540
C1770       C  0.57394527  0.02448930  0.75634980     0.62060
F1771       F  0.95140093  0.46624922  0.75189518    -0.23100
F1772       F  0.93837640  0.99369449  0.70186046    -0.20430
F1773       F  0.93519455  0.51194898  0.75999298    -0.20110
F1774       F  0.58641411  0.02003666  0.72399380    -0.20160
F1775       F  0.58706013  0.00588853  0.78281458    -0.20480
F1776       F  0.57874935  0.05332747  0.76990296    -0.23160
O1777       O  0.96417745  0.56178775  0.25191049    -0.81110
O1778       O  0.51010649  0.68139046  0.24271336    -0.65800
O1779       O  0.50686830  0.59957903  0.25996389    -1.12400
C1780       C  0.96154618  0.62021218  0.36185576     1.05780
O1781       O  0.50089227  0.70009527  0.29942170    -0.79000
O1782       O  0.52963743  0.65535078  0.33732027    -0.66580
Ni1783     Ni  0.49097975  0.57338565  0.22157500     1.34870
C1784       C  0.53606145  0.62839110  0.34236949     0.84520
O1785       O  0.53689396  0.63091356  0.21554847    -0.79540
O1786       O  0.51985663  0.58626415  0.19161100    -0.89820
C1787       C  0.50715320  0.70289999  0.26647183     0.84090
O1788       O  0.95928452  0.59886971  0.20979881    -0.68020
O1789       O  0.97889837  0.64210531  0.36704457    -0.87310
C1790       C  0.96100970  0.61935716  0.18942621     0.84920
C1791       C  0.53809290  0.60743565  0.19367830     1.06490
H1792       H  0.96122234  0.64981394  0.27179697     0.38290
O1793       O  0.98015282  0.64473678  0.28425595    -1.09970
O1794       O  0.51707477  0.60825524  0.33368914    -0.66620
Ni1795     Ni  0.98194955  0.60456744  0.29664009     1.26350
O1796       O  0.97973662  0.63906259  0.20099673    -0.66850
O1797       O  0.95459001  0.60929935  0.32955577    -0.79140
C1798       C  0.97708160  0.54889050  0.27894514     0.84300
O1799       O  0.98435797  0.56432623  0.30828175    -0.66320
Ni1800     Ni  0.99033365  0.66948075  0.32983443     1.27450
Ni1801     Ni  0.50802612  0.63992203  0.24861430     1.26060
H1802       H  0.52539593  0.59209743  0.27037361     0.38850
O1803       O  0.52253231  0.82584459  0.19427800    -0.81110
O1804       O  0.54003905  0.95997629  0.17786091    -0.65800
O1805       O  0.54895751  0.87995415  0.20331557    -1.12400
C1806       C  0.99278005  0.92096741  0.29765432     1.05780
O1807       O  0.56176591  0.96171314  0.23377924    -0.79000
O1808       O  0.55925621  0.93833891  0.29813971    -0.66580
Ni1809     Ni  0.54192467  0.85021048  0.16324400     1.34870
C1810       C  0.57231775  0.91385846  0.29854030     0.84520
O1811       O  0.56931249  0.91665503  0.15407026    -0.79540
O1812       O  0.56310597  0.87094859  0.12871928    -0.89820
C1813       C  0.54821431  0.97514158  0.20736104     0.84090
O1814       O  0.50476414  0.86461691  0.14076088    -0.68020
O1815       O  0.00223661  0.94521153  0.28844342    -0.87310
C1816       C  0.99493555  0.89091043  0.13827633     0.84920
C1817       C  0.57423206  0.89676721  0.13033967     1.06490
H1818       H  0.00123541  0.92622361  0.21774488     0.38290
O1819       O  0.52108146  0.92326494  0.22804425    -1.09970
O1820       O  0.56220780  0.89119448  0.27851905    -0.66620
Ni1821     Ni  0.52572416  0.88507272  0.24418143     1.26350
O1822       O  0.50943464  0.91323946  0.15308673    -0.66850
O1823       O  0.00128477  0.89503019  0.28492047    -0.79140
C1824       C  0.52416522  0.82277692  0.22961069     0.84300
O1825       O  0.52883270  0.84414782  0.25446459    -0.66320
Ni1826     Ni  0.53201433  0.95476151  0.26204581     1.27450
Ni1827     Ni  0.54426184  0.91961416  0.18914774     1.26060
H1828       H  0.56887955  0.87733189  0.21391872     0.38850
O1829       O  0.56376073  0.54090861  0.45455972    -0.81110
O1830       O  0.68800827  0.52277382  0.47632663    -0.65800
O1831       O  0.60958564  0.00892988  0.47888490    -1.12400
C1832       C  0.61764088  0.56529147  0.09094048     1.05780
O1833       O  0.69950694  0.51634156  0.03844360    -0.79000
O1834       O  0.65265387  0.99224094  0.06325169    -0.66580
Ni1835     Ni  0.58228014  0.00808224  0.43488562     1.34870
C1836       C  0.62612260  0.98694994  0.06270184     0.84520
O1837       O  0.64770235  0.98861847  0.42920901    -0.79540
O1838       O  0.60116823  0.97499685  0.41568528    -0.89820
C1839       C  0.70627413  0.51823250  0.50537643     0.84090
O1840       O  0.60100646  0.53331278  0.40624306    -0.68020
O1841       O  0.63978834  0.54801780  0.09748457    -0.87310
C1842       C  0.61648611  0.55484077  0.41976483     0.84920
C1843       C  0.62754132  0.97166802  0.41187515     1.06490
H1844       H  0.65213730  0.56121989  0.51494401     0.38290
O1845       O  0.64697366  0.54135501  0.01936686    -1.09970
O1846       O  0.60705879  0.00662645  0.05240071    -0.66620
Ni1847     Ni  0.60727838  0.53911327  0.01847612     1.26350
O1848       O  0.63741730  0.55137086  0.44622253    -0.66850
O1849       O  0.60634233  0.56869285  0.05756870    -0.79140
C1850       C  0.55294513  0.53550570  0.48319640     0.84300
O1851       O  0.56778031  0.53813778  0.01485061    -0.66320
Ni1852     Ni  0.66841336  0.53128173  0.06541700     1.27450
Ni1853     Ni  0.64805947  0.51585194  0.47465867     1.26060
H1854       H  0.60891081  0.98958946  0.48853743     0.38850
O1855       O  0.83104926  0.50750287  0.45260469    -0.81110
O1856       O  0.95779468  0.45992041  0.46398684    -0.65800
O1857       O  0.87932442  0.97468139  0.46625482    -1.12400
C1858       C  0.91889149  0.53753291  0.07366930     1.05780
O1859       O  0.95982799  0.45294514  0.02320784    -0.79000
O1860       O  0.92854935  0.97413409  0.07619469    -0.66580
Ni1861     Ni  0.85916714  0.99019355  0.42232790     1.34870
C1862       C  0.91018018  0.95505502  0.06389623     0.84520
O1863       O  0.91092942  0.94044784  0.42208704    -0.79540
O1864       O  0.88483644  0.97211969  0.38716652    -0.89820
C1865       C  0.97254906  0.45531032  0.49518026     0.84090
O1866       O  0.88129860  0.52576206  0.42894291    -0.68020
O1867       O  0.94225979  0.52799812  0.06327736    -0.87310
C1868       C  0.90813171  0.52610545  0.42701806     0.84920
C1869       C  0.90299771  0.95037482  0.39046149     1.06490
H1870       H  0.92831632  0.51614027  0.99592018     0.38290
O1871       O  0.92373699  0.49720225  0.00422074    -1.09970
O1872       O  0.88957596  0.96164363  0.03839790    -0.66620
Ni1873     Ni  0.88539405  0.49932405  0.01245452     1.26350
O1874       O  0.92334877  0.50227009  0.43227662    -0.66850
O1875       O  0.89414180  0.52611846  0.05956168    -0.79140
C1876       C  0.82604377  0.50692755  0.98668916     0.84300
O1877       O  0.84512369  0.50117624  0.01453802    -0.66320
Ni1878     Ni  0.95170854  0.49053194  0.04451879     1.27450
Ni1879     Ni  0.91836528  0.96836753  0.46324197     1.26060
H1880       H  0.87062169  0.95621738  0.47024196     0.38850
C1881       C  0.78247102  0.98781536  0.00675313    -0.05990
C1882       C  0.79593134  0.51149101  0.99332364    -0.00070
C1883       C  0.77989727  0.53748679  0.48384271    -0.08640
C1884       C  0.75047404  0.53870441  0.48781714    -0.06020
C1885       C  0.73698066  0.51490889  0.50099893    -0.00080
C1886       C  0.75304647  0.98892181  0.01045389    -0.08550
C1887       C  0.73893090  0.96206052  0.02288219     0.61830
H1888       H  0.79512304  0.96803826  0.01338592     0.12520
H1889       H  0.73774965  0.55837830  0.48090259     0.12540
C1890       C  0.79398604  0.56403516  0.47064395     0.62060
F1891       F  0.75761812  0.93796513  0.02607807    -0.23100
F1892       F  0.71532910  0.95411199  0.99696415    -0.20430
F1893       F  0.73011762  0.96846815  0.05739385    -0.20110
F1894       F  0.80247054  0.55717820  0.43602581    -0.20160
F1895       F  0.81782226  0.57206515  0.49609953    -0.20480
F1896       F  0.77538590  0.58819305  0.46731458    -0.23160
C1897       C  0.00348888  0.49333597  0.02428398    -0.05990
C1898       C  0.00085970  0.46766070  0.50042305    -0.00070
C1899       C  0.51638986  0.96437748  0.46998122    -0.08640
C1900       C  0.53034658  0.98908754  0.46054501    -0.06020
C1901       C  0.52900094  0.51622354  0.48145262    -0.00080
C1902       C  0.51385774  0.51895303  0.01230845    -0.08550
C1903       C  0.51071422  0.54823920  0.03468800     0.61830
H1904       H  0.99432645  0.49464058  0.05005347     0.12520
H1905       H  0.54333171  0.98660870  0.43812554     0.12540
C1906       C  0.01846469  0.93478838  0.44808464     0.62060
F1907       F  0.48227154  0.55324916  0.03868336    -0.23100
F1908       F  0.51927777  0.57235805  0.51752367    -0.20430
F1909       F  0.52708926  0.54720805  0.06952961    -0.20110
F1910       F  0.00485438  0.93633532  0.41220886    -0.20160
F1911       F  0.00558778  0.91221780  0.96359064    -0.20480
F1912       F  0.54710775  0.92726924  0.44714136    -0.23160
C1913       C  0.62006689  0.91643230  0.11661820    -0.05990
C1914       C  0.59178543  0.90761051  0.10289684    -0.00070
C1915       C  0.57724194  0.92172741  0.07197099    -0.08640
C1916       C  0.58940808  0.94676831  0.05877180    -0.06020
C1917       C  0.61667017  0.95755971  0.07467889    -0.00080
C1918       C  0.63303335  0.94078824  0.10278582    -0.08550
C1919       C  0.66337259  0.94931676  0.11997426     0.61830
H1920       H  0.63092776  0.90577325  0.14085667     0.12520
H1921       H  0.57694978  0.95884381  0.03684229     0.12540
C1922       C  0.54708774  0.91256323  0.05633375     0.62060
F1923       F  0.67456375  0.93101102  0.14797127    -0.23100
F1924       F  0.66343374  0.47797010  0.13550678    -0.20430
F1925       F  0.68130562  0.94708611  0.09268906    -0.20110
F1926       F  0.52772887  0.92476663  0.07862634    -0.20160
F1927       F  0.54491686  0.88207480  0.05392837    -0.20480
F1928       F  0.54028076  0.92205280  0.02107753    -0.23160
C1929       C  0.62044701  0.92009848  0.38907155    -0.05990
C1930       C  0.63233280  0.94758041  0.38363087    -0.00070
C1931       C  0.63416864  0.95479201  0.34655386    -0.08640
C1932       C  0.61890436  0.93754464  0.31663721    -0.06020
C1933       C  0.60071865  0.91454410  0.32306492    -0.00080
C1934       C  0.60389925  0.90377024  0.35929265    -0.08550
C1935       C  0.58851728  0.87620458  0.36653169     0.61830
H1936       H  0.62003419  0.91413153  0.41757545     0.12520
H1937       H  0.61694351  0.94530853  0.28858002     0.12540
C1938       C  0.64791493  0.98333322  0.33888796     0.62060
F1939       F  0.59475143  0.86892629  0.40350353    -0.23100
F1940       F  0.59744712  0.85298781  0.34421795    -0.20430
F1941       F  0.55903438  0.88010513  0.35812528    -0.20110
F1942       F  0.67478040  0.48582922  0.36014695    -0.20160
F1943       F  0.63086956  0.00717736  0.34808632    -0.20480
F1944       F  0.65131758  0.98424669  0.30154273    -0.23160
C1945       C  0.95852103  0.89189723  0.07940624    -0.05990
C1946       C  0.96495927  0.89629585  0.11850071    -0.00070
C1947       C  0.94294530  0.90879491  0.13779589    -0.08640
C1948       C  0.91997346  0.92455474  0.11793822    -0.06020
C1949       C  0.91637880  0.92512778  0.07875896    -0.00080
C1950       C  0.93328057  0.90447980  0.05960296    -0.08550
C1951       C  0.92461016  0.89432891  0.01900053     0.61830
H1952       H  0.47347167  0.87933492  0.06415678     0.12520
H1953       H  0.90633798  0.93872567  0.13345398     0.12540
C1954       C  0.94366296  0.90755795  0.17938296     0.62060
F1955       F  0.41776462  0.86470199  0.01721495    -0.23100
F1956       F  0.94707766  0.89745450  0.99873385    -0.20430
F1957       F  0.90084893  0.90975945  0.00262602    -0.20110
F1958       F  0.95060944  0.93507066  0.19527799    -0.20160
F1959       F  0.96337629  0.88698461  0.19484092    -0.20480
F1960       F  0.91679329  0.90023541  0.18731356    -0.23160
C1961       C  0.94672507  0.90684592  0.32217167    -0.05990
C1962       C  0.97041969  0.92582429  0.32381802    -0.00070
C1963       C  0.96985554  0.95307594  0.34618209    -0.08640
C1964       C  0.94511099  0.96137809  0.36201048    -0.06020
C1965       C  0.92211494  0.94242207  0.36155397    -0.00080
C1966       C  0.92300341  0.91438175  0.34190996    -0.08550
C1967       C  0.89839304  0.89324957  0.34107609     0.61830
H1968       H  0.94667961  0.88638983  0.30506081     0.12520
H1969       H  0.94453980  0.98260012  0.37726589     0.12540
C1970       C  0.49503302  0.97435660  0.35468515     0.62060
F1971       F  0.90190910  0.86792424  0.31870024    -0.23100
F1972       F  0.87284378  0.90703997  0.32710245    -0.20430
F1973       F  0.89667243  0.88506774  0.37693675    -0.20110
F1974       F  0.49273982  0.99452230  0.32774717    -0.20160
F1975       F  0.52141264  0.95978748  0.35629894    -0.20480
F1976       F  0.49459556  0.99006751  0.38861835    -0.23160
C1977       C  0.58118316  0.60256650  0.11081093    -0.05990
C1978       C  0.60220890  0.58051081  0.12146972    -0.00070
C1979       C  0.60551017  0.57260664  0.15939266    -0.08640
C1980       C  0.58498401  0.58319812  0.18264987    -0.06020
C1981       C  0.56231779  0.60279813  0.17045517    -0.00080
C1982       C  0.56189988  0.61443800  0.13492429    -0.08550
C1983       C  0.54165486  0.63974414  0.12283596     0.61830
H1984       H  0.57948989  0.61028628  0.08280829     0.12520
H1985       H  0.58612937  0.57570597  0.21060474     0.12540
C1986       C  0.63015722  0.55285375  0.17536460     0.62060
F1987       F  0.54573692  0.64905302  0.08819589    -0.23100
F1988       F  0.54652607  0.66347650  0.14872346    -0.20430
F1989       F  0.51342146  0.63130325  0.12056950    -0.20110
F1990       F  0.65601700  0.56408964  0.16874262    -0.20160
F1991       F  0.62666660  0.52457490  0.15891474    -0.20480
F1992       F  0.63161098  0.55127226  0.21370744    -0.23160
C1993       C  0.56797662  0.62091648  0.40237751    -0.05990
C1994       C  0.56487910  0.61998029  0.36325275    -0.00070
C1995       C  0.58763674  0.60687654  0.34580142    -0.08640
C1996       C  0.60721860  0.58741242  0.36618476    -0.06020
C1997       C  0.60721492  0.58419408  0.40473437    -0.00080
C1998       C  0.58916801  0.60390465  0.42361028    -0.08550
C1999       C  0.59036234  0.60757131  0.46571089     0.61830
H2000       H  0.55273106  0.63400181  0.41656093     0.12520
H2001       H  0.62205880  0.57390213  0.35185351     0.12540
C2002       C  0.59342897  0.61642722  0.30816805     0.62060
F2003       F  0.59640772  0.63672305  0.47715332    -0.23100
F2004       F  0.61121043  0.59009900  0.48457019    -0.20430
F2005       F  0.56397375  0.60088197  0.47564435    -0.20110
F2006       F  0.59870126  0.64644452  0.31104348    -0.20160
F2007       F  0.57022360  0.61116380  0.28110378    -0.20480
F2008       F  0.61720859  0.60187208  0.29669282    -0.23160
C2009       C  0.90659474  0.58612362  0.11191282    -0.05990
C2010       C  0.92465819  0.56172108  0.10443983    -0.00070
C2011       C  0.95348428  0.56328811  0.12240613    -0.08640
C2012       C  0.96513883  0.59091510  0.13324150    -0.06020
C2013       C  0.94816316  0.61219163  0.14954055    -0.00080
C2014       C  0.91768623  0.60986449  0.13809442    -0.08550
C2015       C  0.89764361  0.63252719  0.15331956     0.61830
H2016       H  0.88425157  0.58585735  0.09929258     0.12520
H2017       H  0.98800206  0.59182802  0.13978949     0.12540
C2018       C  0.97124154  0.53611463  0.13453288     0.62060
F2019       F  0.86929606  0.62781166  0.13778672    -0.23100
F2020       F  0.90527859  0.66048356  0.14521943    -0.20310
F2021       F  0.89967153  0.63112530  0.19172912    -0.20110
F2022       F  0.99328488  0.53127120  0.11344258    -0.20160
F2023       F  0.95466008  0.51104292  0.13193500    -0.20480
F2024       F  0.98303268  0.54047207  0.17147450    -0.23160
C2025       C  0.92190176  0.60506676  0.39589913    -0.05990
C2026       C  0.95127997  0.60326898  0.39197290    -0.00070
C2027       C  0.96661938  0.57763698  0.40469059    -0.08640
C2028       C  0.95192410  0.55340643  0.41556786    -0.06020
C2029       C  0.92217144  0.55423104  0.41738734    -0.00080
C2030       C  0.90739162  0.58182132  0.41014235    -0.08550
C2031       C  0.87649548  0.58723824  0.41705691     0.61830
H2032       H  0.90992297  0.62439851  0.38585183     0.12520
H2033       H  0.96424916  0.53362110  0.42320914     0.12540
C2034       C  0.99884159  0.57513474  0.40831133     0.62060
F2035       F  0.86790662  0.61637848  0.41233730    -0.23100
F2036       F  0.87392975  0.58120060  0.45352071    -0.20430
F2037       F  0.85812986  0.56952655  0.39230920    -0.20110
F2038       F  0.01114523  0.60155182  0.40363859    -0.20160
F2039       F  0.00703907  0.55371135  0.38287824    -0.20480
F2040       F  0.00899692  0.56749239  0.44394762    -0.23160
C2041       C  0.99507606  0.77742787  0.22382617    -0.05990
C2042       C  0.51958839  0.79266955  0.24129275    -0.00070
C2043       C  0.54037451  0.77789316  0.26632019    -0.08640
C2044       C  0.53572504  0.74830676  0.27333020    -0.06020
C2045       C  0.51127077  0.73320798  0.25585417    -0.00080
C2046       C  0.99038539  0.74786970  0.23103514    -0.08550
C2047       C  0.96306692  0.73243969  0.21301632     0.61830
H2048       H  0.97956920  0.78895705  0.20446429     0.12520
H2049       H  0.55113690  0.73666343  0.29269567     0.12540
C2050       C  0.56743582  0.79317830  0.28522895     0.62060
F2051       F  0.94485643  0.75106687  0.19125549    -0.23100
F2052       F  0.94839048  0.72277159  0.24050867    -0.20430
F2053       F  0.96995650  0.70841935  0.19035977    -0.20110
F2054       F  0.55988215  0.81576362  0.30946290    -0.20160
F2055       F  0.58194282  0.80462473  0.25867983    -0.20480
F2056       F  0.58604531  0.77404762  0.30565015    -0.23160
C2057       C  0.50028985  0.99144980  0.21604721    -0.05990
C2058       C  0.52973117  0.99848703  0.21962167    -0.00070
C2059       C  0.54193324  0.51845425  0.24879573    -0.08640
C2060       C  0.52451127  0.53027931  0.27407332    -0.06020
C2061       C  0.99495661  0.52482534  0.26859328    -0.00080
C2062       C  0.98275364  0.50392361  0.24106016    -0.08550
C2063       C  0.95161500  0.99409937  0.23860353     0.61830
H2064       H  0.99137520  0.97468918  0.19522189     0.12520
H2065       H  0.53359181  0.54577154  0.29647208     0.12540
C2066       C  0.57394313  0.52448982  0.25634553     0.62060
F2067       F  0.95139888  0.96625138  0.25189647    -0.23100
F2068       F  0.93837673  0.49368753  0.20185298    -0.20430
F2069       F  0.93519013  0.01195199  0.25997964    -0.20110
F2070       F  0.58641087  0.52003966  0.22398837    -0.20160
F2071       F  0.58705929  0.50588779  0.28280793    -0.20480
F2072       F  0.57874683  0.55332745  0.26990122    -0.23160
O2073       O  0.96417928  0.56178741  0.75191315    -0.81110
O2074       O  0.51010708  0.68139008  0.74271113    -0.65800
O2075       O  0.50686958  0.59957898  0.75996447    -1.12400
C2076       C  0.96154745  0.62021387  0.86185604     1.05780
O2077       O  0.50089336  0.70009558  0.79941947    -0.79000
O2078       O  0.52963869  0.65535209  0.83731938    -0.66580
Ni2079     Ni  0.49098127  0.57338441  0.72157665     1.34870
C2080       C  0.53606277  0.62839255  0.84236938     0.84520
O2081       O  0.53689460  0.63091236  0.71554730    -0.79540
O2082       O  0.51985766  0.58626228  0.69161159    -0.89820
C2083       C  0.50715410  0.70289991  0.76646944     0.84090
O2084       O  0.95928563  0.59886754  0.70979866    -0.68020
O2085       O  0.97889962  0.64210702  0.86704427    -0.87310
C2086       C  0.96101047  0.61935495  0.68942585     0.84920
C2087       C  0.53809373  0.60743392  0.69367802     1.06490
H2088       H  0.96122333  0.64981397  0.77179628     0.38290
O2089       O  0.98015389  0.64473709  0.78425525    -1.09970
O2090       O  0.51707611  0.60825665  0.83368968    -0.66620
Ni2091     Ni  0.98195090  0.60456815  0.79664079     1.26350
O2092       O  0.97973706  0.63906088  0.70099599    -0.66850
O2093       O  0.95459128  0.60930064  0.82955628    -0.79140
C2094       C  0.97708374  0.54889110  0.77894841     0.84300
O2095       O  0.98435984  0.56432753  0.80828439    -0.66320
Ni2096     Ni  0.99033480  0.66948176  0.82983316     1.27450
Ni2097     Ni  0.50802696  0.63992163  0.74861333     1.26060
H2098       H  0.52539731  0.59209778  0.77037445     0.38850
O2099       O  0.52252773  0.82584751  0.69427935    -0.81110
O2100       O  0.54003807  0.95997752  0.67786248    -0.65800
O2101       O  0.54895674  0.87995522  0.70331666    -1.12400
C2102       C  0.99278223  0.92096923  0.79765812     1.05780
O2103       O  0.56176717  0.96171394  0.73377988    -0.79000
O2104       O  0.55925916  0.93833986  0.79814106    -0.66580
Ni2105     Ni  0.54192307  0.85021095  0.66324594     1.34870
C2106       C  0.57231985  0.91385896  0.79854188     0.84520
O2107       O  0.56930823  0.91665581  0.65406717    -0.79540
O2108       O  0.56310687  0.87094687  0.62872227    -0.89820
C2109       C  0.54821478  0.97514264  0.70736240     0.84090
O2110       O  0.50476371  0.86461844  0.64075961    -0.68020
O2111       O  0.00223977  0.94521317  0.78844791    -0.87310
C2112       C  0.99493387  0.89091167  0.63827769     0.84920
C2113       C  0.57423014  0.89676661  0.63033944     1.06490
H2114       H  0.00123655  0.92622532  0.71774992     0.38290
O2115       O  0.52108267  0.92326630  0.72804766    -1.09970
O2116       O  0.56220909  0.89119504  0.77852102    -0.66620
Ni2117     Ni  0.52572486  0.88507395  0.74418409     1.26350
O2118       O  0.50943160  0.91324072  0.65309071    -0.66850
O2119       O  0.00128624  0.89503181  0.78492388    -0.79140
C2120       C  0.52416370  0.82277844  0.72961202     0.84300
O2121       O  0.52883306  0.84414871  0.75446654    -0.66320
Ni2122     Ni  0.53201664  0.95476281  0.76204850     1.27450
Ni2123     Ni  0.54426062  0.91961522  0.68914853     1.26060
H2124       H  0.56887898  0.87733312  0.71391903     0.38850
O2125       O  0.56376079  0.54090958  0.95456054    -0.81110
O2126       O  0.68800880  0.52277568  0.97632811    -0.65800
O2127       O  0.60958612  0.00893140  0.97888590    -1.12400
C2128       C  0.61764135  0.56528949  0.59093975     1.05780
O2129       O  0.69950646  0.51633822  0.53844176    -0.79000
O2130       O  0.65265292  0.99223843  0.56325026    -0.66580
Ni2131     Ni  0.58228063  0.00808346  0.93488656     1.34870
C2132       C  0.62612155  0.98694801  0.56270072     0.84520
O2133       O  0.64770317  0.98861973  0.92921059    -0.79540
O2134       O  0.60116902  0.97499825  0.91568627    -0.89820
C2135       C  0.70627464  0.51823510  0.00537820     0.84090
O2136       O  0.60100666  0.53331424  0.90624400    -0.68020
O2137       O  0.63978863  0.54801551  0.59748359    -0.87310
C2138       C  0.61648655  0.55484213  0.91976557     0.84920
C2139       C  0.62754219  0.97166924  0.91187662     1.06490
H2140       H  0.65213718  0.56122195  0.01494465     0.38290
O2141       O  0.64697355  0.54135297  0.51936593    -1.09970
O2142       O  0.60705813  0.00662493  0.55239976    -0.66620
Ni2143     Ni  0.60727824  0.53911174  0.51847526     1.26350
O2144       O  0.63741778  0.55137222  0.94622323    -0.66850
O2145       O  0.60634272  0.56869117  0.55756807    -0.79140
C2146       C  0.55294529  0.53550667  0.98319730     0.84300
O2147       O  0.56778009  0.53813684  0.51484976    -0.66320
Ni2148     Ni  0.66841325  0.53127893  0.56541568     1.27450
Ni2149     Ni  0.64805998  0.51585360  0.97465993     1.26060
H2150       H  0.60891137  0.98959099  0.98853849     0.38850
O2151       O  0.83105010  0.50750577  0.95260674    -0.81110
O2152       O  0.95779512  0.45992285  0.96398932    -0.65800
O2153       O  0.87932489  0.97468365  0.96625647    -1.12400
C2154       C  0.91889179  0.53753068  0.57366772     1.05780
O2155       O  0.95982766  0.45294269  0.52320528    -0.79000
O2156       O  0.92854917  0.97413138  0.57619222    -0.66580
Ni2157     Ni  0.85916791  0.99019638  0.92232974     1.34870
C2158       C  0.91017939  0.95505287  0.56389378     0.84520
O2159       O  0.91093020  0.94045052  0.92208865    -0.79540
O2160       O  0.88483723  0.97212253  0.88716829    -0.89820
C2161       C  0.97254938  0.45531246  0.99518275     0.84090
O2162       O  0.88129957  0.52576481  0.92894509    -0.68020
O2163       O  0.94226001  0.52799541  0.56327603    -0.87310
C2164       C  0.90813266  0.52610807  0.92702006     0.84920
C2165       C  0.90299855  0.95037766  0.89046316     1.06490
H2166       H  0.92831633  0.51613793  0.49591809     0.38290
O2167       O  0.92373676  0.49719999  0.50421868    -1.09970
O2168       O  0.88957514  0.96164198  0.53839588    -0.66620
Ni2169     Ni  0.88539379  0.49932222  0.51245252     1.26350
O2170       O  0.92334962  0.50227265  0.93227877    -0.66850
O2171       O  0.89414191  0.52611677  0.55955969    -0.79140
C2172       C  0.82604323  0.50692524  0.48668728     0.84300
O2173       O  0.84512340  0.50117474  0.51453621    -0.66320
Ni2174     Ni  0.95170836  0.49052936  0.54451666     1.27450
Ni2175     Ni  0.91836578  0.96836997  0.96324387     1.26060
H2176       H  0.87062211  0.95621959  0.97024326     0.38850
C2177       C  0.78246992  0.98781179  0.50674839    -0.05990
C2178       C  0.79593081  0.51148842  0.49332183    -0.00070
C2179       C  0.77989732  0.53748865  0.98384218    -0.08640
C2180       C  0.75047407  0.53870619  0.98781655    -0.06020
C2181       C  0.73698123  0.51491154  0.00100103    -0.00080
C2182       C  0.75304528  0.98891816  0.51044870    -0.08550
C2183       C  0.73892885  0.96205583  0.52287293     0.61830
H2184       H  0.79512153  0.96803403  0.51337903     0.12520
H2185       H  0.73774928  0.55837943  0.98089996     0.12540
C2186       C  0.79398555  0.56403649  0.97064132     0.62060
F2187       F  0.75761565  0.93796002  0.52606664    -0.23100
F2188       F  0.71532747  0.95410932  0.49695306    -0.20430
F2189       F  0.73011467  0.96846089  0.55738456    -0.20110
F2190       F  0.80246951  0.55717833  0.93602314    -0.20160
F2191       F  0.81782202  0.57206751  0.99609589    -0.20480
F2192       F  0.77538517  0.58819415  0.96731102    -0.23160
C2193       C  0.00348818  0.49333439  0.52428195    -0.05990
C2194       C  0.00086024  0.46766211  0.00042547    -0.00070
C2195       C  0.51639002  0.96437858  0.96998329    -0.08640
C2196       C  0.53034678  0.98908848  0.96054662    -0.06020
C2197       C  0.52900105  0.51622467  0.98145373    -0.00080
C2198       C  0.51385745  0.51895161  0.51230716    -0.08550
C2199       C  0.51071423  0.54823758  0.53468730     0.61830
H2200       H  0.99432584  0.49463869  0.55005148     0.12520
H2201       H  0.54333189  0.98660942  0.93812712     0.12540
C2202       C  0.01846364  0.93478938  0.94808636     0.62060
F2203       F  0.48227173  0.55324745  0.53868366    -0.23100
F2204       F  0.51927823  0.57235949  0.01752447    -0.20430
F2205       F  0.52708988  0.54720617  0.56952849    -0.20110
F2206       F  0.00485100  0.93633621  0.91221173    -0.20160
F2207       F  0.00558759  0.91221676  0.46358721    -0.20480
F2208       F  0.54710637  0.92727023  0.94714000    -0.23160
C2209       C  0.62006521  0.91642957  0.61661572    -0.05990
C2210       C  0.59178315  0.90760909  0.60289576    -0.00070
C2211       C  0.57723910  0.92172719  0.57197115    -0.08640
C2212       C  0.58940533  0.94676820  0.55877249    -0.06020
C2213       C  0.61666846  0.95755802  0.57467782    -0.00080
C2214       C  0.63303200  0.94078528  0.60278318    -0.08550
C2215       C  0.66337202  0.94931226  0.61997000     0.61830
H2216       H  0.63092645  0.90576972  0.64085335     0.12520
H2217       H  0.57694638  0.95884471  0.53684448     0.12540
C2218       C  0.54708358  0.91256573  0.55633628     0.62060
F2219       F  0.67456354  0.93100538  0.64796558    -0.23100
F2220       F  0.66343484  0.47796523  0.63550380    -0.20430
F2221       F  0.68130377  0.94708159  0.59268332    -0.20110
F2222       F  0.52772635  0.92477634  0.57862644    -0.20160
F2223       F  0.54490805  0.88207776  0.55393801    -0.20480
F2224       F  0.54027839  0.92205025  0.52107721    -0.23160
C2225       C  0.62044776  0.92009951  0.88907374    -0.05990
C2226       C  0.63233383  0.94758126  0.88363282    -0.00070
C2227       C  0.63417031  0.95479229  0.84655577    -0.08640
C2228       C  0.61890685  0.93754423  0.81663906    -0.06020
C2229       C  0.60072068  0.91454404  0.82306670    -0.00080
C2230       C  0.60390043  0.90377089  0.85929478    -0.08550
C2231       C  0.58851775  0.87620576  0.86653411     0.61830
H2232       H  0.62003430  0.91413304  0.91757770     0.12520
H2233       H  0.61694674  0.94530750  0.78858162     0.12540
C2234       C  0.64791736  0.98333307  0.83888974     0.62060
F2235       F  0.59475147  0.86892782  0.90350612    -0.23100
F2236       F  0.59744717  0.85298846  0.84422087    -0.20430
F2237       F  0.55903495  0.88010698  0.85812734    -0.20110
F2238       F  0.67478349  0.48582758  0.86014746    -0.20160
F2239       F  0.63087336  0.00717786  0.84808976    -0.20480
F2240       F  0.65131883  0.98424698  0.80154417    -0.23160
C2241       C  0.95851913  0.89189541  0.57940727    -0.05990
C2242       C  0.96495748  0.89629646  0.61850149    -0.00070
C2243       C  0.94294333  0.90879665  0.63779560    -0.08640
C2244       C  0.91997085  0.92455444  0.61793643    -0.06020
C2245       C  0.91637661  0.92512586  0.57875725    -0.00080
C2246       C  0.93327878  0.90447731  0.55960279    -0.08550
C2247       C  0.92460910  0.89432563  0.51900054     0.61830
H2248       H  0.47346978  0.87933230  0.56415872     0.12520
H2249       H  0.90633573  0.93872688  0.63345093     0.12540
C2250       C  0.94366484  0.90756875  0.67938398     0.62060
F2251       F  0.41776423  0.86469851  0.51721544    -0.23100
F2252       F  0.94707680  0.89745161  0.49873430    -0.20430
F2253       F  0.90084761  0.90975542  0.50262525    -0.20110
F2254       F  0.95062142  0.93508226  0.69526816    -0.20160
F2255       F  0.96337353  0.88699207  0.69484410    -0.20480
F2256       F  0.91679438  0.90025835  0.68732370    -0.23160
C2257       C  0.94672640  0.90684841  0.82217421    -0.05990
C2258       C  0.97042126  0.92582657  0.82382102    -0.00070
C2259       C  0.96985682  0.95307841  0.84618465    -0.08640
C2260       C  0.94511193  0.96138089  0.86201221    -0.06020
C2261       C  0.92211582  0.94242493  0.86155561    -0.00080
C2262       C  0.92300445  0.91438450  0.84191191    -0.08550
C2263       C  0.89839395  0.89325244  0.84107780     0.61830
H2264       H  0.94668106  0.88639219  0.80506362     0.12520
H2265       H  0.94454066  0.98260300  0.87726743     0.12540
C2266       C  0.49503473  0.97435833  0.85468922     0.62060
F2267       F  0.90191012  0.86792699  0.81870223    -0.23100
F2268       F  0.87284483  0.90704289  0.82710369    -0.20430
F2269       F  0.89667295  0.88507082  0.87693845    -0.20110
F2270       F  0.49274319  0.99452397  0.82775144    -0.20160
F2271       F  0.52141404  0.95978845  0.85630458    -0.20480
F2272       F  0.49459638  0.99006941  0.88862211    -0.23160
C2273       C  0.58118400  0.60256472  0.61081063    -0.05990
C2274       C  0.60220959  0.58050883  0.62146918    -0.00070
C2275       C  0.60551077  0.57260438  0.65939199    -0.08640
C2276       C  0.58498452  0.58319566  0.68264919    -0.06020
C2277       C  0.56231852  0.60279604  0.67045476    -0.00080
C2278       C  0.56190077  0.61443617  0.63492407    -0.08550
C2279       C  0.54165577  0.63974236  0.62283587     0.61830
H2280       H  0.57949080  0.61028469  0.58280809     0.12520
H2281       H  0.58612969  0.57570310  0.71060385     0.12540
C2282       C  0.63015798  0.55285164  0.67536385     0.62060
F2283       F  0.54573772  0.64905124  0.58819577    -0.23100
F2284       F  0.54652711  0.66347469  0.64872338    -0.20430
F2285       F  0.51342236  0.63130148  0.62056958    -0.20110
F2286       F  0.65601765  0.56408771  0.66874171    -0.20160
F2287       F  0.62666756  0.52457273  0.65891409    -0.20480
F2288       F  0.63161188  0.55127023  0.71370670    -0.23160
C2289       C  0.56797770  0.62091827  0.90237759    -0.05990
C2290       C  0.56488040  0.61998198  0.86325284    -0.00070
C2291       C  0.58763802  0.60687793  0.84580176    -0.08640
C2292       C  0.60721964  0.58741373  0.86618535    -0.06020
C2293       C  0.60721563  0.58419544  0.90473491    -0.00080
C2294       C  0.58916870  0.60390617  0.92361058    -0.08550
C2295       C  0.59036246  0.60757261  0.96571112     0.61830
H2296       H  0.55273213  0.63400378  0.91656080     0.12520
H2297       H  0.62205982  0.57390325  0.85185428     0.12540
C2298       C  0.59343030  0.61642817  0.80816821     0.62060
F2299       F  0.59640794  0.63672425  0.97715399    -0.23100
F2300       F  0.61121017  0.59010003  0.98457067    -0.20430
F2301       F  0.56397360  0.60088337  0.97564384    -0.20110
F2302       F  0.59870212  0.64644556  0.81104294    -0.20160
F2303       F  0.57022513  0.61116402  0.78110384    -0.20480
F2304       F  0.61721024  0.60187323  0.79669359    -0.23160
C2305       C  0.90659517  0.58612104  0.61191239    -0.05990
C2306       C  0.92465880  0.56171893  0.60443828    -0.00070
C2307       C  0.95348497  0.56328603  0.62240442    -0.08640
C2308       C  0.96513937  0.59091297  0.63324085    -0.06020
C2309       C  0.94816353  0.61218910  0.64954037    -0.00080
C2310       C  0.91768656  0.60986151  0.63809473    -0.08550
C2311       C  0.89764365  0.63252294  0.65332181     0.61830
H2312       H  0.88425186  0.58585453  0.59929275     0.12520
H2313       H  0.98800262  0.59182586  0.63978946     0.12540
C2314       C  0.97124206  0.53611258  0.63453172     0.62060
F2315       F  0.86929607  0.62780711  0.63778934    -0.23100
F2316       F  0.90527775  0.66048005  0.64522337    -0.20310
F2317       F  0.89967221  0.63111935  0.69173121    -0.20110
F2318       F  0.99328560  0.53126891  0.61344176    -0.20160
F2319       F  0.95466052  0.51104090  0.63193392    -0.20480
F2320       F  0.98303294  0.54047036  0.67147349    -0.23160
C2321       C  0.92190286  0.60506892  0.89589945    -0.05990
C2322       C  0.95128114  0.60327111  0.89197357    -0.00070
C2323       C  0.96662051  0.57763928  0.90469203    -0.08640
C2324       C  0.95192518  0.55340896  0.91556984    -0.06020
C2325       C  0.92217246  0.55423356  0.91738894    -0.00080
C2326       C  0.90739262  0.58182370  0.91014301    -0.08550
C2327       C  0.87649632  0.58724069  0.91705683     0.61830
H2328       H  0.90992408  0.62440049  0.88585154     0.12520
H2329       H  0.96425024  0.53362376  0.92321177     0.12540
C2330       C  0.99884273  0.57513699  0.90831296     0.62060
F2331       F  0.86790732  0.61638076  0.91233605    -0.23100
F2332       F  0.87393021  0.58120383  0.95352077    -0.20430
F2333       F  0.85813102  0.56952845  0.89230940    -0.20110
F2334       F  0.01114639  0.60155384  0.90363921    -0.20160
F2335       F  0.00704026  0.55371299  0.88288068    -0.20480
F2336       F  0.00899800  0.56749546  0.94394962    -0.23160
C2337       C  0.99507467  0.77742925  0.72382809    -0.05990
C2338       C  0.51958772  0.79267051  0.74129309    -0.00070
C2339       C  0.54037551  0.77789303  0.76631710    -0.08640
C2340       C  0.53572671  0.74830618  0.77332585    -0.06020
C2341       C  0.51127156  0.73320791  0.75585161    -0.00080
C2342       C  0.99038475  0.74787057  0.73103561    -0.08550
C2343       C  0.96306568  0.73244089  0.71301839     0.61830
H2344       H  0.97956659  0.78895916  0.70446855     0.12520
H2345       H  0.55113971  0.73666216  0.79268909     0.12540
C2346       C  0.56743798  0.79317747  0.78522337     0.62060
F2347       F  0.94485419  0.75106859  0.69125967    -0.23100
F2348       F  0.94839082  0.72277196  0.74051181    -0.20430
F2349       F  0.96995417  0.70842112  0.69036017    -0.20110
F2350       F  0.55988646  0.81576212  0.80945971    -0.20160
F2351       F  0.58194276  0.80462471  0.75867259    -0.20480
F2352       F  0.58604870  0.77404597  0.80564141    -0.23160
C2353       C  0.50029108  0.99145127  0.71605070    -0.05990
C2354       C  0.52973243  0.99848823  0.71962458    -0.00070
C2355       C  0.54193525  0.51845457  0.74879943    -0.08640
C2356       C  0.52451357  0.53027977  0.77407731    -0.06020
C2357       C  0.99495888  0.52482582  0.76859772    -0.00080
C2358       C  0.98275568  0.50392385  0.74106532    -0.08550
C2359       C  0.95161708  0.99409984  0.73860972     0.61830
H2360       H  0.99137607  0.97469162  0.69522453     0.12520
H2361       H  0.53359427  0.54577209  0.79647590     0.12540
C2362       C  0.57394532  0.52448930  0.75634982     0.62060
F2363       F  0.95140094  0.96624926  0.75189519    -0.23100
F2364       F  0.93837636  0.49369454  0.70186053    -0.20430
F2365       F  0.93519454  0.01194903  0.75999286    -0.20110
F2366       F  0.58641415  0.52003668  0.72399381    -0.20160
F2367       F  0.58706020  0.50588852  0.78281458    -0.20480
F2368       F  0.57874941  0.55332747  0.76990301    -0.23160
loop_ 
_geom_bond_atom_site_label_1 
_geom_bond_atom_site_label_2 
_geom_bond_distance 
_geom_bond_site_symmetry_2 
_ccdc_geom_bond_type 
O1           C22   1.244       .  A
O1        Ni1191   1.885       .  S
O2           C11   1.278       .  A
O2          Ni25   1.909       .  S
O3           Ni7   1.853   1_455  S
O3          Ni25   1.900       .  S
O3        Ni1203   1.889   1_455  S
O3           H26   0.960       .  S
C4           O21   1.242       .  A
C4           O13   1.285       .  A
C4          C250   1.507       .  S
O5           C11   1.281       .  A
O5        Ni1208   1.936   1_455  S
O6            C8   1.269       .  A
O6        Ni1208   1.926   1_455  S
Ni7          O10   1.970   1_655  S
Ni7        O1185   1.885       .  S
Ni7        O1196   1.878       .  S
C8           O18   1.283       .  A
C8          C218   1.505       .  S
O9           C15   1.291       .  A
O9          Ni25   1.951       .  S
O10          C15   1.291       .  A
C11         C269   1.472       .  S
O12          C14   1.230       .  A
O12       Ni1191   1.878       .  S
O13         Ni24   2.017       .  S
C14          O20   1.276       .  A
C14         C237   1.500       .  S
C15         C205   1.510       .  S
H16          O17   0.966       .  S
O17         Ni19   1.897       .  S
O17         Ni24   1.943       .  S
O17       Ni1209   1.962       .  S
O18       Ni1203   1.973   1_455  S
Ni19         O23   1.893       .  S
Ni19         O21   1.871       .  S
Ni19       O1202   1.973       .  S
Ni19       O1187   1.889       .  S
O20       Ni1209   2.017       .  S
C22          O23   1.244       .  A
C22         C285   1.425       .  S
Ni24       O1189   1.936       .  S
Ni24       O1190   1.926       .  S
Ni25       O1204   2.017   1_455  S
Ni25       O1201   1.962   1_455  S
O27          C48   1.284       .  A
O27         Ni33   1.947       .  S
O28          C37   1.250       .  A
O28         Ni51   1.897       .  S
O29         Ni33   1.916       .  S
O29         Ni51   1.897       .  S
O29         Ni45   1.957       .  S
O29          H52   0.966       .  S
C30          O47   1.311       .  A
C30          O39   1.273       .  A
C30         C186   1.514       .  S
O31          C37   1.251       .  A
O31         Ni50   1.886       .  S
O32          C34   1.255       .  A
O32         Ni50   1.867       .  S
Ni33         O36   1.991       .  S
Ni33         O38   1.933       .  S
C34          O44   1.279       .  A
C34         C157   1.491       .  S
O35          C41   1.247       .  A
O35         Ni51   1.845       .  S
O36          C41   1.286       .  A
C37         C282   1.442       .  S
O38        C1224   1.271   1_455  A
O39       Ni1234   1.873       .  S
C40        O1222   1.271       .  A
C40        O1230   1.278       .  A
C40         C170   1.506       .  S
C41         C138   1.488       .  S
H42        O1227   0.962       .  S
O43         Ni51   1.894       .  S
O43         Ni45   1.857       .  S
O43         Ni50   1.857       .  S
O43        H1226   0.962       .  S
O44         Ni45   1.980       .  S
Ni45         O49   1.911       .  S
Ni45       O1231   2.016       .  S
O46        C1224   1.278   1_455  A
O46         Ni51   1.955       .  S
O47       Ni1229   2.016       .  S
C48          O49   1.281       .  A
C48         C266   1.481       .  S
Ni50       O1223   1.873       .  S
O53          C74   1.255       .  A
O53        Ni651   1.861       .  S
O54          C63   1.281       .  A
O54         Ni77   1.899       .  S
O55         Ni59   1.893       .  S
O55        Ni669   1.868       .  S
O55        Ni959   1.931       .  S
O55          H78   0.965       .  S
C56          O73   1.263       .  A
C56          O65   1.290       .  A
C56         C202   1.527       .  S
O57         C359   1.288       .  A
O57         Ni76   1.954       .  S
O58          C60   1.270       .  A
O58        Ni668   1.925       .  S
Ni59         O62   1.872       .  S
Ni59        O645   1.861       .  S
Ni59        O656   1.896       .  S
C60          O70   1.282       .  A
C60         C141   1.519       .  S
O61          C67   1.297       .  A
O61        Ni669   1.992       .  S
O62          C67   1.269       .  A
C63         O353   1.288       .  A
C63         C109   1.475       .  S
O64          C66   1.261       .  A
O64        Ni651   1.896       .  S
O65         Ni76   2.004       .  S
C66          O72   1.283       .  A
C66         C221   1.499       .  S
C67         C154   1.484       .  S
H68         O365   0.966       .  S
O69         Ni71   1.863       .  S
O69         Ni76   1.893       .  S
O69        Ni373   1.935   1_554  S
O69         H364   0.966       .  S
O70        Ni663   1.972       .  S
Ni71         O75   1.841       .  S
Ni71         O73   1.892       .  S
Ni71        O662   1.972       .  S
Ni71        O943   1.931   1_554  S
O72         Ni77   1.978       .  S
C74         O371   1.252       .  A
C74         C125   1.431       .  S
O75         C370   1.252   1_554  A
Ni76        O650   1.925   1_545  S
Ni77        O653   1.992   1_545  S
Ni77        O647   1.868       .  S
Ni77        O365   1.935       .  S
O79         C396   1.288       .  A
O79        Ni677   1.953   1_545  S
O80          C89   1.262       .  A
O80        Ni695   1.878       .  S
O81         Ni85   1.893       .  S
O81        Ni103   1.865       .  S
O81        Ni985   1.941       .  S
O81         H104   0.966       .  S
C82          O99   1.305       .  A
C82          O91   1.268       .  A
C82         C234   1.514       .  S
O83         C385   1.258   1_554  A
O83        Ni102   1.880       .  S
O84          C86   1.251       .  A
O84        Ni694   1.881       .  S
Ni85         O88   2.001       .  S
Ni85        O671   1.953       .  S
Ni85        O682   1.921       .  S
C86          O96   1.280       .  A
C86         C173   1.495       .  S
O87          C93   1.257       .  A
O87        Ni103   1.892       .  S
O88          C93   1.288       .  A
C89         O379   1.258       .  A
C89         C122   1.436       .  S
O90          C92   1.271       .  A
O90        Ni677   1.921   1_545  S
O91        Ni102   1.857   1_545  S
C92          O98   1.290       .  A
C92         C253   1.528       .  S
C93         C189   1.494       .  S
H94          O95   0.964   1_546  S
O95         Ni97   1.865       .  S
O95        Ni102   1.851       .  S
O95        Ni991   1.907   1_554  S
O96        Ni689   1.989       .  S
Ni97        O101   1.902   1_565  S
Ni97         O99   2.028   1_565  S
Ni97        O688   1.989       .  S
Ni97        O969   1.941   1_554  S
O98        Ni695   1.991   1_545  S
C100        O101   1.283   1_556  A
C100        O375   1.288       .  A
C100        C106   1.475       .  S
Ni102       O676   1.881       .  S
Ni103       O672   1.878       .  S
Ni103       O690   1.991       .  S
Ni103       O983   1.907       .  S
C105        C110   1.406       .  A
C105        C698   1.402   1_554  A
C105        H112   1.083       .  S
C106        C697   1.402   1_546  A
C106        C403   1.416       .  A
C107        C108   1.408       .  A
C107        C402   1.416       .  A
C107        C114   1.518       .  S
C108        C109   1.403       .  A
C108        H113   1.083       .  S
C109        C998   1.416   1_545  A
C110        C997   1.416       .  A
C110        C111   1.519       .  S
C111        F115   1.385       .  S
C111        F116   1.384   1_554  S
C111        F117   1.382       .  S
C114        F118   1.382       .  S
C114        F119   1.383       .  S
C114        F120   1.385       .  S
C121        C418   1.402       .  A
C121       C1310   1.384   1_565  A
C121        H128   1.078       .  S
C122        C417   1.402       .  A
C122       C1899   1.403       .  A
C123        C124   1.393       .  A
C123       C1898   1.403       .  A
C123       C1314   1.523       .  S
C124        C717   1.409       .  A
C124        H129   1.080       .  S
C125        C716   1.409   1_545  A
C125        C422   1.403       .  A
C126       C1305   1.384   1_545  A
C126        C421   1.403   1_554  A
C126        C127   1.527       .  S
C127        F131   1.375   1_455  S
C127        F133   1.381       .  S
C127        F428   1.383       .  S
C130       C1307   1.523       .  S
C130        F134   1.366       .  S
C130        F431   1.385       .  S
C130       F1320   1.384       .  S
F132        C423   1.383       .  S
F135        C426   1.385       .  S
F136       C1314   1.384       .  S
C137        C138   1.407       .  A
C137        C142   1.421       .  A
C137        H144   1.083       .  S
C138        C139   1.404       .  A
C139        C140   1.418       .  A
C139        C146   1.505       .  S
C140        C141   1.411       .  A
C140        H145   1.084       .  S
C141        C142   1.429       .  A
C142        C143   1.518       .  S
C143        F147   1.385       .  S
C143        F149   1.383       .  S
C143        F740   1.383       .  S
C146        F150   1.383       .  S
C146        F151   1.384       .  S
C146        F152   1.362       .  S
F148        C735   1.383       .  S
C153        C154   1.411       .  A
C153        C158   1.414       .  A
C153        H160   1.083       .  S
C154        C155   1.413       .  A
C155        C156   1.412       .  A
C155        C162   1.515       .  S
C156        C157   1.412       .  A
C156        H161   1.084       .  S
C157        C158   1.411       .  A
C158        C159   1.511       .  S
C159        F163   1.384       .  S
C159        F164   1.381       .  S
C159        F165   1.383       .  S
C162        F167   1.382       .  S
C162        F168   1.385       .  S
C162        F758   1.383       .  S
F166        C754   1.383       .  S
C169        C170   1.405       .  A
C169        C174   1.420       .  A
C169       H1360   1.084       .  S
C170        C171   1.416       .  A
C171        C172   1.412       .  A
C171        C178   1.503       .  S
C172        C173   1.403       .  A
C172        H177   1.085       .  S
C173        C174   1.424       .  A
C174        C175   1.512       .  S
C175        F180   1.381   1_554  S
C175        F181   1.382       .  S
C175       F1363   1.383       .  S
H176       C1353   1.084       .  S
C178        F182   1.367       .  S
C178        F183   1.383       .  S
C178        F184   1.384       .  S
F179       C1359   1.383       .  S
C185        C186   1.413       .  A
C185        C190   1.430       .  A
C185        H192   1.082       .  S
C186        C187   1.436       .  A
C187        C188   1.400       .  A
C187       C1378   1.527       .  S
C188        C189   1.392       .  A
C188        H193   1.081       .  S
C189        C190   1.420       .  A
C190        C191   1.512       .  S
C191        F195   1.384       .  S
C191        F196   1.384       .  S
C191        F197   1.383       .  S
C194       C1371   1.527       .  S
C194        F198   1.366       .  S
C194        F199   1.385   1_655  S
C194        F200   1.383       .  S
C201        C202   1.419       .  A
C201        C206   1.419       .  A
C201        H208   1.082       .  S
C202        C203   1.423       .  A
C203        C204   1.423       .  A
C203        C210   1.516       .  S
C204        C205   1.409       .  A
C204        H209   1.079       .  S
C205        C206   1.415       .  A
C206        C207   1.517       .  S
C207        F211   1.385       .  S
C207        F212   1.383       .  S
C207        F213   1.377       .  S
C210        F214   1.383       .  S
C210        F215   1.382       .  S
C210        F216   1.384       .  S
C217        C218   1.399       .  A
C217        C222   1.411       .  A
C217        H224   1.084       .  S
C218        C219   1.417       .  A
C219        C220   1.419       .  A
C219        C226   1.514       .  S
C220        C221   1.409       .  A
C220        H225   1.083       .  S
C221        C222   1.427       .  A
C222        C223   1.514       .  S
C223        F227   1.383       .  S
C223        F228   1.374       .  S
C223        F229   1.382       .  S
C226        F230   1.383       .  S
C226        F231   1.371       .  S
C226        F232   1.385       .  S
C233        C234   1.414       .  A
C233        C238   1.444       .  A
C233        H240   1.082       .  S
C234        C235   1.416       .  A
C235        C236   1.389       .  A
C235        C242   1.522       .  S
C236        C237   1.393       .  A
C236        H241   1.066       .  S
C237        C238   1.435       .  A
C238        C239   1.509       .  S
C239        F243   1.384       .  S
C239        F244   1.383       .  S
C239        F245   1.383       .  S
C242        F246   1.376       .  S
C242        F247   1.382       .  S
C242        F248   1.375       .  S
C249        C250   1.406       .  A
C249        C254   1.426       .  A
C249        H256   1.083       .  S
C250        C251   1.418       .  A
C251        C252   1.413       .  A
C251        C258   1.501       .  S
C252        C253   1.407       .  A
C252        H257   1.084       .  S
C253        C254   1.435       .  A
C254        C255   1.518       .  S
C255        F259   1.385       .  S
C255        F260   1.384       .  S
C255        F261   1.382       .  S
C258        F262   1.370       .  S
C258        F263   1.382       .  S
C258        F264   1.370       .  S
C265        C270   1.407       .  A
C265       C1450   1.405       .  A
C265        H272   1.083       .  S
C266        C267   1.418       .  A
C266       C1449   1.405   1_455  A
C267        C268   1.406       .  A
C267        C274   1.514       .  S
C268        C269   1.400       .  A
C268        H273   1.083       .  S
C269       C1454   1.413   1_455  A
C270       C1453   1.413       .  A
C270        C271   1.518       .  S
C271        F275   1.384       .  S
C271        F276   1.384       .  S
C271        F277   1.382       .  S
C274        F278   1.380       .  S
C274        F279   1.384       .  S
C274        F280   1.385       .  S
C281        C282   1.411       .  A
C281       C2062   1.394   1_455  A
C281       H1472   1.083   1_455  S
C282        C875   1.412       .  A
C283        C284   1.387       .  A
C283        C874   1.412   1_545  A
C283        C290   1.516       .  S
C284       C1469   1.398   1_455  A
C284        H289   1.084       .  S
C285        C286   1.401       .  A
C285       C1468   1.398       .  A
C286       C2057   1.394   1_545  A
C286        C879   1.526   1_545  S
C287        C878   1.526       .  S
C287        F291   1.377       .  S
C287        F293   1.383       .  S
C287        F884   1.383       .  S
H288       C1465   1.083       .  S
C290        F294   1.383       .  S
C290        F295   1.382       .  S
C290        F296   1.379       .  S
F292        C879   1.383       .  S
O297        C318   1.244       .  A
O297      Ni1487   1.885       .  S
O298        C307   1.278       .  A
O298       Ni321   1.909       .  S
O299       Ni303   1.853   1_455  S
O299       Ni321   1.900       .  S
O299      Ni1499   1.889   1_455  S
O299        H322   0.960       .  S
C300        O317   1.242       .  A
C300        O309   1.285       .  A
C300        C546   1.507       .  S
O301        C307   1.281       .  A
O301      Ni1504   1.936   1_455  S
O302        C304   1.269       .  A
O302      Ni1504   1.926   1_455  S
Ni303      O1481   1.885       .  S
Ni303       O306   1.970   1_655  S
Ni303      O1492   1.878       .  S
C304        O314   1.283       .  A
C304        C514   1.505       .  S
O305        C311   1.291       .  A
O305       Ni321   1.951       .  S
O306        C311   1.291       .  A
C307        C565   1.472       .  S
O308        C310   1.230       .  A
O308      Ni1487   1.878       .  S
O309       Ni320   2.018       .  S
C310        O316   1.276       .  A
C310        C533   1.500       .  S
C311        C501   1.510       .  S
H312        O313   0.966       .  S
O313      Ni1505   1.962       .  S
O313       Ni315   1.897       .  S
O313       Ni320   1.943       .  S
O314      Ni1499   1.973   1_455  S
Ni315      O1498   1.973       .  S
Ni315       O319   1.893       .  S
Ni315       O317   1.871       .  S
Ni315      O1483   1.889       .  S
O316      Ni1505   2.017       .  S
C318        O319   1.244       .  A
C318        C581   1.425       .  S
Ni320      O1485   1.936       .  S
Ni320      O1486   1.926       .  S
Ni321      O1500   2.017   1_455  S
Ni321      O1497   1.962   1_455  S
O323        C344   1.284       .  A
O323       Ni329   1.947       .  S
O324        C333   1.250       .  A
O324       Ni347   1.897       .  S
O325       Ni329   1.916       .  S
O325       Ni347   1.897       .  S
O325       Ni341   1.957       .  S
O325        H348   0.966       .  S
C326        O343   1.311       .  A
C326        O335   1.273       .  A
C326        C482   1.514       .  S
O327        C333   1.251       .  A
O327       Ni346   1.886       .  S
O328        C330   1.255       .  A
O328       Ni346   1.867       .  S
Ni329       O332   1.991       .  S
Ni329       O334   1.933       .  S
C330        O340   1.279       .  A
C330        C453   1.491       .  S
O331        C337   1.247       .  A
O331       Ni347   1.845       .  S
O332        C337   1.286       .  A
C333        C578   1.442       .  S
O334       C1520   1.271   1_455  A
O335      Ni1530   1.873       .  S
C336       O1518   1.271       .  A
C336       O1526   1.278       .  A
C336        C466   1.506       .  S
C337        C434   1.488       .  S
H338       O1523   0.962       .  S
O339       Ni347   1.894       .  S
O339       Ni341   1.857       .  S
O339       Ni346   1.857       .  S
O339       H1522   0.962       .  S
O340       Ni341   1.980       .  S
Ni341       O345   1.911       .  S
Ni341      O1527   2.016       .  S
O342       C1520   1.278   1_455  A
O342       Ni347   1.955       .  S
O343      Ni1525   2.016       .  S
C344        O345   1.281       .  A
C344        C562   1.481       .  S
Ni346      O1519   1.873       .  S
O349        C370   1.255       .  A
O349       Ni947   1.861       .  S
O350        C359   1.281   1_556  A
O350       Ni373   1.899       .  S
O351       Ni355   1.893       .  S
O351       Ni965   1.868       .  S
O351       Ni663   1.931   1_556  S
O351        H374   0.965       .  S
C352        O369   1.263       .  A
C352        O361   1.290       .  A
C352        C498   1.527       .  S
O353       Ni372   1.954       .  S
O354        C356   1.270       .  A
O354       Ni964   1.925       .  S
Ni355       O941   1.861       .  S
Ni355       O358   1.872       .  S
Ni355       O952   1.896       .  S
C356        O366   1.282       .  A
C356        C437   1.519       .  S
O357        C363   1.297       .  A
O357       Ni965   1.992       .  S
O358        C363   1.269       .  A
C359        C405   1.475       .  S
O360        C362   1.261       .  A
O360       Ni947   1.896       .  S
O361       Ni372   2.004       .  S
C362        O368   1.283       .  A
C362        C517   1.499       .  S
C363        C450   1.484       .  S
O365       Ni367   1.863       .  S
O365       Ni372   1.893       .  S
O366       Ni959   1.972       .  S
Ni367       O958   1.972       .  S
Ni367       O371   1.841       .  S
Ni367       O369   1.892       .  S
Ni367       O647   1.931       .  S
O368       Ni373   1.978       .  S
C370        C421   1.431       .  S
Ni372       O946   1.925   1_545  S
Ni373       O949   1.992   1_545  S
Ni373       O943   1.868       .  S
O375       Ni973   1.953   1_545  S
O376        C385   1.262       .  A
O376       Ni991   1.878       .  S
O377       Ni381   1.893       .  S
O377       Ni399   1.865       .  S
O377       Ni689   1.941   1_556  S
O377        H400   0.966       .  S
C378        O395   1.305       .  A
C378        O387   1.268       .  A
C378        C530   1.514       .  S
O379       Ni398   1.880       .  S
O380        C382   1.251       .  A
O380       Ni990   1.881       .  S
Ni381       O967   1.953       .  S
Ni381       O384   2.001       .  S
Ni381       O978   1.921       .  S
C382        O392   1.280       .  A
C382        C469   1.495       .  S
O383        C389   1.257       .  A
O383       Ni399   1.892       .  S
O384        C389   1.288       .  A
C385        C418   1.436   1_556  S
O386        C388   1.271       .  A
O386       Ni973   1.921   1_545  S
O387       Ni398   1.857   1_545  S
C388        O394   1.290       .  A
C388        C549   1.528       .  S
C389        C485   1.494       .  S
H390        O391   0.964   1_545  S
O391       Ni695   1.907       .  S
O391       Ni393   1.865       .  S
O391       Ni398   1.851       .  S
O392       Ni985   1.989       .  S
Ni393       O984   1.989       .  S
Ni393       O397   1.902   1_565  S
Ni393       O395   2.028   1_565  S
Ni393       O673   1.941       .  S
O394       Ni991   1.991   1_545  S
C396        O397   1.283       .  A
C396        C402   1.475       .  S
Ni398       O972   1.881       .  S
Ni399       O968   1.878       .  S
Ni399       O986   1.991       .  S
Ni399       O687   1.907   1_556  S
C401        C994   1.402       .  A
C401        C406   1.406       .  A
C401        H408   1.083       .  S
C402        C993   1.402   1_545  A
C403        C404   1.408       .  A
C403        C410   1.518       .  S
C404        C405   1.403   1_556  A
C404        H409   1.083       .  S
C405        C702   1.416   1_545  A
C406        C701   1.416       .  A
C406        C407   1.519       .  S
C407        F411   1.385       .  S
C407        F412   1.384       .  S
C407        F413   1.382       .  S
C410        F414   1.382       .  S
C410        F415   1.383       .  S
C410        F416   1.385       .  S
C417       C1606   1.384   1_565  A
C417        H424   1.078       .  S
C418       C2195   1.403   1_554  A
C419       C2194   1.403   1_556  A
C419        C420   1.393       .  A
C419       C1610   1.523       .  S
C420       C1013   1.409       .  A
C420        H425   1.080       .  S
C421       C1012   1.409   1_545  A
C422       C1601   1.384   1_545  A
C422        C423   1.527       .  S
C423        F427   1.375   1_455  S
C423        F429   1.381       .  S
C426       C1603   1.523       .  S
C426        F430   1.366       .  S
C426       F1616   1.384       .  S
F432       C1610   1.384       .  S
C433        C434   1.407       .  A
C433        C438   1.421       .  A
C433        H440   1.083       .  S
C434        C435   1.404       .  A
C435        C436   1.418       .  A
C435        C442   1.505       .  S
C436        C437   1.411       .  A
C436        H441   1.084       .  S
C437        C438   1.429       .  A
C438        C439   1.518       .  S
C439        F443   1.385       .  S
C439       F1036   1.383       .  S
C439        F445   1.383       .  S
C442        F446   1.383       .  S
C442        F447   1.384       .  S
C442        F448   1.362       .  S
F444       C1031   1.383       .  S
C449        C450   1.411       .  A
C449        C454   1.414       .  A
C449        H456   1.083       .  S
C450        C451   1.413       .  A
C451        C452   1.412       .  A
C451        C458   1.515       .  S
C452        C453   1.412       .  A
C452        H457   1.084       .  S
C453        C454   1.411       .  A
C454        C455   1.511       .  S
C455        F459   1.384       .  S
C455        F460   1.381       .  S
C455        F461   1.383       .  S
C458       F1054   1.383       .  S
C458        F463   1.382       .  S
C458        F464   1.385       .  S
F462       C1050   1.383       .  S
C465        C466   1.405       .  A
C465        C470   1.420       .  A
C465       H1656   1.084       .  S
C466        C467   1.416       .  A
C467        C468   1.412       .  A
C467        C474   1.503       .  S
C468        C469   1.403       .  A
C468        H473   1.085       .  S
C469        C470   1.424       .  A
C470        C471   1.512       .  S
C471       F1659   1.383       .  S
C471        F476   1.381       .  S
C471        F477   1.382       .  S
H472       C1649   1.084       .  S
C474        F478   1.367       .  S
C474        F479   1.383       .  S
C474        F480   1.384       .  S
F475       C1655   1.383       .  S
C481        C482   1.413       .  A
C481        C486   1.430       .  A
C481        H488   1.082       .  S
C482        C483   1.436       .  A
C483        C484   1.400       .  A
C483       C1674   1.527       .  S
C484        C485   1.392       .  A
C484        H489   1.081       .  S
C485        C486   1.420       .  A
C486        C487   1.512       .  S
C487        F491   1.384       .  S
C487        F492   1.384       .  S
C487        F493   1.383       .  S
C490       C1667   1.527       .  S
C490        F494   1.366       .  S
C490        F495   1.385   1_655  S
C490        F496   1.383       .  S
C497        C498   1.419       .  A
C497        C502   1.419       .  A
C497        H504   1.082       .  S
C498        C499   1.423       .  A
C499        C500   1.423       .  A
C499        C506   1.516       .  S
C500        C501   1.409       .  A
C500        H505   1.079       .  S
C501        C502   1.415       .  A
C502        C503   1.517       .  S
C503        F507   1.385       .  S
C503        F508   1.383       .  S
C503        F509   1.377       .  S
C506        F510   1.383       .  S
C506        F511   1.382       .  S
C506        F512   1.384       .  S
C513        C514   1.399       .  A
C513        C518   1.411       .  A
C513        H520   1.084       .  S
C514        C515   1.417       .  A
C515        C516   1.419       .  A
C515        C522   1.514       .  S
C516        C517   1.409       .  A
C516        H521   1.083       .  S
C517        C518   1.427       .  A
C518        C519   1.514       .  S
C519        F523   1.383       .  S
C519        F524   1.374       .  S
C519        F525   1.382       .  S
C522        F526   1.383       .  S
C522        F527   1.371       .  S
C522        F528   1.385       .  S
C529        C530   1.414       .  A
C529        C534   1.444       .  A
C529        H536   1.082       .  S
C530        C531   1.416       .  A
C531        C532   1.389       .  A
C531        C538   1.522       .  S
C532        C533   1.393       .  A
C532        H537   1.066       .  S
C533        C534   1.435       .  A
C534        C535   1.509       .  S
C535        F539   1.384       .  S
C535        F540   1.383       .  S
C535        F541   1.383       .  S
C538        F542   1.376       .  S
C538        F543   1.382       .  S
C538        F544   1.375       .  S
C545        C546   1.406       .  A
C545        C550   1.426       .  A
C545        H552   1.083       .  S
C546        C547   1.418       .  A
C547        C548   1.413       .  A
C547        C554   1.501       .  S
C548        C549   1.407       .  A
C548        H553   1.084       .  S
C549        C550   1.435       .  A
C550        C551   1.518       .  S
C551        F555   1.385       .  S
C551        F556   1.384       .  S
C551        F557   1.382       .  S
C554        F558   1.370       .  S
C554        F559   1.382       .  S
C554        F560   1.370       .  S
C561       C1746   1.405       .  A
C561        C566   1.407       .  A
C561        H568   1.083       .  S
C562       C1745   1.405   1_455  A
C562        C563   1.418       .  A
C563        C564   1.406       .  A
C563        C570   1.514       .  S
C564        C565   1.400       .  A
C564        H569   1.083       .  S
C565       C1750   1.413   1_455  A
C566       C1749   1.413       .  A
C566        C567   1.518       .  S
C567        F571   1.384       .  S
C567        F572   1.384       .  S
C567        F573   1.382       .  S
C570        F574   1.380       .  S
C570        F575   1.384       .  S
C570        F576   1.385       .  S
C577        C578   1.411       .  A
C577       C2358   1.394   1_455  A
C577       H1768   1.083   1_455  S
C578       C1171   1.412       .  A
C579       C1170   1.412   1_545  A
C579        C580   1.387       .  A
C579        C586   1.516       .  S
C580       C1765   1.398   1_455  A
C580        H585   1.084       .  S
C581       C1764   1.398       .  A
C581        C582   1.401       .  A
C582       C2353   1.394   1_545  A
C582       C1175   1.526   1_545  S
C583       C1174   1.526       .  S
C583        F587   1.377       .  S
C583       F1180   1.383       .  S
C583        F589   1.383       .  S
H584       C1761   1.083       .  S
C586        F590   1.383       .  S
C586        F591   1.382       .  S
C586        F592   1.379       .  S
F588       C1175   1.383       .  S
O593        C614   1.244       .  A
O593      Ni1783   1.885       .  S
O594        C603   1.278       .  A
O594       Ni617   1.909       .  S
O595       Ni599   1.853   1_455  S
O595       Ni617   1.900       .  S
O595      Ni1795   1.889   1_455  S
O595        H618   0.960       .  S
C596        O613   1.242       .  A
C596        O605   1.285       .  A
C596        C842   1.507       .  S
O597        C603   1.281       .  A
O597      Ni1800   1.936   1_455  S
O598        C600   1.269       .  A
O598      Ni1800   1.926   1_455  S
Ni599      O1777   1.885       .  S
Ni599       O602   1.970   1_655  S
Ni599      O1788   1.878       .  S
C600        O610   1.283       .  A
C600        C810   1.505       .  S
O601        C607   1.291       .  A
O601       Ni617   1.951       .  S
O602        C607   1.291       .  A
C603        C861   1.472       .  S
O604        C606   1.230       .  A
O604      Ni1783   1.878       .  S
O605       Ni616   2.017       .  S
C606        O612   1.276       .  A
C606        C829   1.500       .  S
C607        C797   1.510       .  S
H608        O609   0.966       .  S
O609      Ni1801   1.962       .  S
O609       Ni611   1.897       .  S
O609       Ni616   1.943       .  S
O610      Ni1795   1.973   1_455  S
Ni611      O1794   1.973       .  S
Ni611       O615   1.893       .  S
Ni611       O613   1.871       .  S
Ni611      O1779   1.889       .  S
O612      Ni1801   2.017       .  S
C614        O615   1.244       .  A
C614        C877   1.425       .  S
Ni616      O1781   1.936       .  S
Ni616      O1782   1.926       .  S
Ni617      O1796   2.017   1_455  S
Ni617      O1793   1.962   1_455  S
O619        C640   1.284       .  A
O619       Ni625   1.947       .  S
O620        C629   1.250       .  A
O620       Ni643   1.897       .  S
O621       Ni625   1.916       .  S
O621       Ni643   1.897       .  S
O621       Ni637   1.957       .  S
O621        H644   0.966       .  S
C622        O639   1.311       .  A
C622        O631   1.273       .  A
C622        C778   1.514       .  S
O623        C629   1.251       .  A
O623       Ni642   1.886       .  S
O624        C626   1.255       .  A
O624       Ni642   1.867       .  S
Ni625       O628   1.991       .  S
Ni625       O630   1.933       .  S
C626        O636   1.279       .  A
C626        C749   1.491       .  S
O627        C633   1.247       .  A
O627       Ni643   1.845       .  S
O628        C633   1.286       .  A
C629        C874   1.442       .  S
O630       C1816   1.271   1_455  A
O631      Ni1826   1.873       .  S
C632       O1814   1.271       .  A
C632       O1822   1.278       .  A
C632        C762   1.506       .  S
C633        C730   1.488       .  S
H634       O1819   0.962       .  S
O635       Ni643   1.894       .  S
O635       Ni637   1.857       .  S
O635       Ni642   1.857       .  S
O635       H1818   0.962       .  S
O636       Ni637   1.980       .  S
Ni637       O641   1.911       .  S
Ni637      O1823   2.016       .  S
O638       C1816   1.278   1_455  A
O638       Ni643   1.955       .  S
O639      Ni1821   2.016       .  S
C640        O641   1.281       .  A
C640        C858   1.481       .  S
Ni642      O1815   1.873       .  S
O645        C666   1.255       .  A
O646        C655   1.281       .  A
O646       Ni669   1.899       .  S
O647       Ni651   1.893       .  S
O647        H670   0.965   1_545  S
C648        O665   1.263       .  A
C648        O657   1.290       .  A
C648        C794   1.527       .  S
O649        C951   1.288       .  A
O649       Ni668   1.954       .  S
O650        C652   1.270       .  A
Ni651       O654   1.872   1_545  S
C652        O662   1.282   1_565  A
C652        C733   1.519       .  S
O653        C659   1.297       .  A
O654        C659   1.269       .  A
C655        O945   1.288       .  A
C655        C701   1.475       .  S
O656        C658   1.261       .  A
O657       Ni668   2.004       .  S
C658        O664   1.283       .  A
C658        C813   1.499       .  S
C659        C746   1.484       .  S
H660        O957   0.966       .  S
O661       Ni965   1.935   1_554  S
O661       Ni663   1.863       .  S
O661       Ni668   1.893       .  S
O661        H956   0.966       .  S
Ni663       O667   1.841       .  S
Ni663       O665   1.892       .  S
O664       Ni669   1.978       .  S
C666        O963   1.252       .  A
C666        C717   1.431       .  S
O667        C962   1.252   1_554  A
Ni669       O957   1.935       .  S
O671        C988   1.288       .  A
O672        C681   1.262       .  A
O673       Ni677   1.893       .  S
O673       Ni695   1.865       .  S
O673        H696   0.966       .  S
C674        O691   1.305       .  A
C674        O683   1.268       .  A
C674        C826   1.514       .  S
O675        C977   1.258   1_554  A
O675       Ni694   1.880       .  S
O676        C678   1.251       .  A
Ni677       O680   2.001       .  S
C678        O688   1.280       .  A
C678        C765   1.495       .  S
O679        C685   1.257       .  A
O679       Ni695   1.892       .  S
O680        C685   1.288       .  A
C681        O971   1.258       .  A
C681        C714   1.436       .  S
O682        C684   1.271       .  A
O683       Ni694   1.857       .  S
C684        O690   1.290       .  A
C684        C845   1.528       .  S
C685        C781   1.494       .  S
H686        O687   0.964   1_556  S
O687       Ni689   1.865       .  S
O687       Ni694   1.851       .  S
Ni689       O693   1.902       .  S
Ni689       O691   2.028       .  S
C692        O967   1.288       .  A
C692        O693   1.283   1_556  A
C692        C698   1.475       .  S
C697        C702   1.406       .  A
C697        H704   1.083       .  S
C698        C995   1.416       .  A
C699        C994   1.416       .  A
C699        C700   1.408       .  A
C699        C706   1.518       .  S
C700        C701   1.403       .  A
C700        H705   1.083       .  S
C702        C703   1.519       .  S
C703        F707   1.385       .  S
C703        F708   1.384   1_554  S
C703        F709   1.382       .  S
C706        F710   1.382       .  S
C706        F711   1.383       .  S
C706        F712   1.385       .  S
C713       C1010   1.402       .  A
C713       C1902   1.384       .  A
C713        H720   1.078       .  S
C714       C1009   1.402       .  A
C714       C1307   1.403       .  A
C715       C1306   1.403       .  A
C715        C716   1.393       .  A
C715       C1906   1.523       .  S
C716        H721   1.080       .  S
C717       C1014   1.403       .  A
C718       C1897   1.384       .  A
C718       C1013   1.403   1_554  A
C718        C719   1.527       .  S
C719        F723   1.375   1_455  S
C719       F1020   1.383       .  S
C719        F725   1.381       .  S
C722       C1899   1.523       .  S
C722        F726   1.366       .  S
C722       F1023   1.385       .  S
C722       F1912   1.384       .  S
F724       C1015   1.383       .  S
F727       C1018   1.385       .  S
F728       C1906   1.384       .  S
C729        C730   1.407       .  A
C729        C734   1.421       .  A
C729        H736   1.083       .  S
C730        C731   1.404       .  A
C731        C732   1.418       .  A
C731        C738   1.505       .  S
C732        C733   1.411       .  A
C732        H737   1.084       .  S
C733        C734   1.429       .  A
C734        C735   1.518       .  S
C735        F739   1.385       .  S
C735        F741   1.383       .  S
C738        F742   1.383       .  S
C738        F743   1.384       .  S
C738        F744   1.362       .  S
C745        C746   1.411       .  A
C745        C750   1.414       .  A
C745        H752   1.083       .  S
C746        C747   1.413       .  A
C747        C748   1.412       .  A
C747        C754   1.515       .  S
C748        C749   1.412       .  A
C748        H753   1.084       .  S
C749        C750   1.411       .  A
C750        C751   1.511       .  S
C751        F755   1.384       .  S
C751        F756   1.381       .  S
C751        F757   1.383       .  S
C754        F759   1.382   1_565  S
C754        F760   1.385       .  S
C761        C762   1.405       .  A
C761        C766   1.420       .  A
C761       H1952   1.084       .  S
C762        C763   1.416       .  A
C763        C764   1.412       .  A
C763        C770   1.503       .  S
C764        C765   1.403       .  A
C764        H769   1.085       .  S
C765        C766   1.424       .  A
C766        C767   1.512       .  S
C767       F1955   1.383       .  S
C767        F772   1.381   1_554  S
C767        F773   1.382       .  S
H768       C1945   1.084       .  S
C770        F774   1.367       .  S
C770        F775   1.383       .  S
C770        F776   1.384       .  S
F771       C1951   1.383       .  S
C777        C778   1.413       .  A
C777        C782   1.430       .  A
C777        H784   1.082       .  S
C778        C779   1.436       .  A
C779        C780   1.400       .  A
C779       C1970   1.527       .  S
C780        C781   1.392       .  A
C780        H785   1.081       .  S
C781        C782   1.420       .  A
C782        C783   1.512       .  S
C783        F787   1.384       .  S
C783        F788   1.384       .  S
C783        F789   1.383       .  S
C786       C1963   1.527       .  S
C786        F790   1.366       .  S
C786        F791   1.385   1_655  S
C786        F792   1.383       .  S
C793        C794   1.419       .  A
C793        C798   1.419       .  A
C793        H800   1.082       .  S
C794        C795   1.423       .  A
C795        C796   1.423       .  A
C795        C802   1.516       .  S
C796        C797   1.409       .  A
C796        H801   1.079       .  S
C797        C798   1.415       .  A
C798        C799   1.517       .  S
C799        F803   1.385       .  S
C799        F804   1.383       .  S
C799        F805   1.377       .  S
C802        F806   1.383       .  S
C802        F807   1.382       .  S
C802        F808   1.384       .  S
C809        C810   1.399       .  A
C809        C814   1.411       .  A
C809        H816   1.084       .  S
C810        C811   1.417       .  A
C811        C812   1.419       .  A
C811        C818   1.514       .  S
C812        C813   1.409       .  A
C812        H817   1.083       .  S
C813        C814   1.427       .  A
C814        C815   1.514       .  S
C815        F819   1.383       .  S
C815        F820   1.374       .  S
C815        F821   1.382       .  S
C818        F822   1.383       .  S
C818        F823   1.371       .  S
C818        F824   1.385       .  S
C825        C826   1.414       .  A
C825        C830   1.444       .  A
C825        H832   1.082       .  S
C826        C827   1.416       .  A
C827        C828   1.389       .  A
C827        C834   1.522       .  S
C828        C829   1.393       .  A
C828        H833   1.066       .  S
C829        C830   1.435       .  A
C830        C831   1.509       .  S
C831        F835   1.384       .  S
C831        F836   1.383       .  S
C831        F837   1.383       .  S
C834        F838   1.376       .  S
C834        F839   1.382       .  S
C834        F840   1.375       .  S
C841        C842   1.406       .  A
C841        C846   1.426       .  A
C841        H848   1.083       .  S
C842        C843   1.418       .  A
C843        C844   1.413       .  A
C843        C850   1.501       .  S
C844        C845   1.407       .  A
C844        H849   1.084       .  S
C845        C846   1.435       .  A
C846        C847   1.518       .  S
C847        F851   1.385       .  S
C847        F852   1.384       .  S
C847        F853   1.382       .  S
C850        F854   1.370       .  S
C850        F855   1.382       .  S
C850        F856   1.370       .  S
C857       C2042   1.405       .  A
C857        C862   1.407       .  A
C857        H864   1.083       .  S
C858       C2041   1.405   1_455  A
C858        C859   1.418       .  A
C859        C860   1.406       .  A
C859        C866   1.514       .  S
C860        C861   1.400       .  A
C860        H865   1.083       .  S
C861       C2046   1.413   1_455  A
C862       C2045   1.413       .  A
C862        C863   1.518       .  S
C863        F867   1.384       .  S
C863        F868   1.384       .  S
C863        F869   1.382       .  S
C866        F870   1.380       .  S
C866        F871   1.384       .  S
C866        F872   1.385       .  S
C873        C874   1.411       .  A
C873       C1470   1.394   1_465  A
C873       H2064   1.083   1_455  S
C875        C876   1.387       .  A
C875        C882   1.516       .  S
C876       C2061   1.398   1_455  A
C876        H881   1.084       .  S
C877       C2060   1.398       .  A
C877        C878   1.401       .  A
C878       C1465   1.394       .  A
C879        F883   1.377       .  S
C879        F885   1.383   1_565  S
H880       C2057   1.083       .  S
C882        F886   1.383       .  S
C882        F887   1.382       .  S
C882        F888   1.379       .  S
O889        C910   1.244       .  A
O889      Ni2079   1.885       .  S
O890        C899   1.278       .  A
O890       Ni913   1.909       .  S
O891       Ni895   1.853   1_455  S
O891       Ni913   1.900       .  S
O891      Ni2091   1.889   1_455  S
O891        H914   0.960       .  S
C892        O909   1.242       .  A
C892        O901   1.285       .  A
C892       C1138   1.507       .  S
O893        C899   1.281       .  A
O893      Ni2096   1.936   1_455  S
O894        C896   1.269       .  A
O894      Ni2096   1.926   1_455  S
Ni895      O2073   1.885       .  S
Ni895       O898   1.970   1_655  S
Ni895      O2084   1.878       .  S
C896        O906   1.283       .  A
C896       C1106   1.505       .  S
O897        C903   1.291       .  A
O897       Ni913   1.951       .  S
O898        C903   1.291       .  A
C899       C1157   1.472       .  S
O900        C902   1.230       .  A
O900      Ni2079   1.878       .  S
O901       Ni912   2.018       .  S
C902        O908   1.276       .  A
C902       C1125   1.500       .  S
C903       C1093   1.510       .  S
H904        O905   0.966       .  S
O905      Ni2097   1.962       .  S
O905       Ni907   1.897       .  S
O905       Ni912   1.943       .  S
O906      Ni2091   1.973   1_455  S
Ni907      O2090   1.973       .  S
Ni907       O911   1.893       .  S
Ni907       O909   1.871       .  S
Ni907      O2075   1.889       .  S
O908      Ni2097   2.017       .  S
C910        O911   1.244       .  A
C910       C1173   1.425       .  S
Ni912      O2077   1.936       .  S
Ni912      O2078   1.926       .  S
Ni913      O2092   2.017   1_455  S
Ni913      O2089   1.962   1_455  S
O915        C936   1.284       .  A
O915       Ni921   1.947       .  S
O916        C925   1.250       .  A
O916       Ni939   1.897       .  S
O917       Ni921   1.916       .  S
O917       Ni939   1.897       .  S
O917       Ni933   1.957       .  S
O917        H940   0.966       .  S
C918        O935   1.311       .  A
C918        O927   1.273       .  A
C918       C1074   1.514       .  S
O919        C925   1.251       .  A
O919       Ni938   1.886       .  S
O920        C922   1.255       .  A
O920       Ni938   1.867       .  S
Ni921       O924   1.991       .  S
Ni921       O926   1.933       .  S
C922        O932   1.279       .  A
C922       C1045   1.491       .  S
O923        C929   1.247       .  A
O923       Ni939   1.845       .  S
O924        C929   1.286       .  A
C925       C1170   1.442       .  S
O926       C2112   1.271   1_455  A
O927      Ni2122   1.873       .  S
C928       O2110   1.271       .  A
C928       O2118   1.278       .  A
C928       C1058   1.506       .  S
C929       C1026   1.488       .  S
H930       O2115   0.962       .  S
O931       Ni939   1.894       .  S
O931       Ni933   1.857       .  S
O931       Ni938   1.857       .  S
O931       H2114   0.962       .  S
O932       Ni933   1.980       .  S
Ni933       O937   1.911       .  S
Ni933      O2119   2.016       .  S
O934       C2112   1.278   1_455  A
O934       Ni939   1.955       .  S
O935      Ni2117   2.016       .  S
C936        O937   1.281       .  A
C936       C1154   1.481       .  S
Ni938      O2111   1.873       .  S
O941        C962   1.255       .  A
O942        C951   1.281   1_556  A
O942       Ni965   1.899       .  S
O943       Ni947   1.893       .  S
O943        H966   0.965   1_545  S
C944        O961   1.263       .  A
C944        O953   1.290       .  A
C944       C1090   1.527       .  S
O945       Ni964   1.954       .  S
O946        C948   1.270       .  A
Ni947       O950   1.872   1_545  S
C948        O958   1.282   1_565  A
C948       C1029   1.519       .  S
O949        C955   1.297       .  A
O950        C955   1.269       .  A
C951        C997   1.475       .  S
O952        C954   1.261       .  A
O953       Ni964   2.004       .  S
C954        O960   1.283       .  A
C954       C1109   1.499       .  S
C955       C1042   1.484       .  S
O957       Ni959   1.863       .  S
O957       Ni964   1.893       .  S
Ni959       O963   1.841       .  S
Ni959       O961   1.892       .  S
O960       Ni965   1.978       .  S
C962       C1013   1.431       .  S
O968        C977   1.262       .  A
O969       Ni973   1.893       .  S
O969       Ni991   1.865       .  S
O969        H992   0.966       .  S
C970        O987   1.305       .  A
C970        O979   1.268       .  A
C970       C1122   1.514       .  S
O971       Ni990   1.880       .  S
O972        C974   1.251       .  A
Ni973       O976   2.001       .  S
C974        O984   1.280       .  A
C974       C1061   1.495       .  S
O975        C981   1.257       .  A
O975       Ni991   1.892       .  S
O976        C981   1.288       .  A
C977       C1010   1.436   1_556  S
O978        C980   1.271       .  A
O979       Ni990   1.857       .  S
C980        O986   1.290       .  A
C980       C1141   1.528       .  S
C981       C1077   1.494       .  S
H982        O983   0.964       .  S
O983       Ni985   1.865       .  S
O983       Ni990   1.851       .  S
Ni985       O989   1.902       .  S
Ni985       O987   2.028       .  S
C988        O989   1.283       .  A
C988        C994   1.475       .  S
C993        C998   1.406       .  A
C993       H1000   1.083       .  S
C995        C996   1.408       .  A
C995       C1002   1.518       .  S
C996        C997   1.403   1_556  A
C996       H1001   1.083       .  S
C998        C999   1.519       .  S
C999       F1003   1.385       .  S
C999       F1004   1.384       .  S
C999       F1005   1.382       .  S
C1002      F1006   1.382       .  S
C1002      F1007   1.383       .  S
C1002      F1008   1.385       .  S
C1009      C2198   1.384       .  A
C1009      H1016   1.078       .  S
C1010      C1603   1.403   1_554  A
C1011      C1602   1.403   1_556  A
C1011      C1012   1.393       .  A
C1011      C2202   1.523       .  S
C1012      H1017   1.080       .  S
C1014      C2193   1.384       .  A
C1014      C1015   1.527       .  S
C1015      F1019   1.375   1_455  S
C1015      F1021   1.381       .  S
C1018      C2195   1.523       .  S
C1018      F1022   1.366       .  S
C1018      F2208   1.384       .  S
F1024      C2202   1.384       .  S
C1025      C1026   1.407       .  A
C1025      C1030   1.421       .  A
C1025      H1032   1.083       .  S
C1026      C1027   1.404       .  A
C1027      C1028   1.418       .  A
C1027      C1034   1.505       .  S
C1028      C1029   1.411       .  A
C1028      H1033   1.084       .  S
C1029      C1030   1.429       .  A
C1030      C1031   1.518       .  S
C1031      F1035   1.385       .  S
C1031      F1037   1.383       .  S
C1034      F1038   1.383       .  S
C1034      F1039   1.384       .  S
C1034      F1040   1.362       .  S
C1041      C1042   1.411       .  A
C1041      C1046   1.414       .  A
C1041      H1048   1.083       .  S
C1042      C1043   1.413       .  A
C1043      C1044   1.412       .  A
C1043      C1050   1.515       .  S
C1044      C1045   1.412       .  A
C1044      H1049   1.084       .  S
C1045      C1046   1.411       .  A
C1046      C1047   1.511       .  S
C1047      F1051   1.384       .  S
C1047      F1052   1.381       .  S
C1047      F1053   1.383       .  S
C1050      F1055   1.382   1_565  S
C1050      F1056   1.385       .  S
C1057      C1058   1.405       .  A
C1057      C1062   1.420       .  A
C1057      H2248   1.084       .  S
C1058      C1059   1.416       .  A
C1059      C1060   1.412       .  A
C1059      C1066   1.503       .  S
C1060      C1061   1.403       .  A
C1060      H1065   1.085       .  S
C1061      C1062   1.424       .  A
C1062      C1063   1.512       .  S
C1063      F2251   1.383       .  S
C1063      F1068   1.381       .  S
C1063      F1069   1.382       .  S
H1064      C2241   1.084       .  S
C1066      F1070   1.367       .  S
C1066      F1071   1.383       .  S
C1066      F1072   1.384       .  S
F1067      C2247   1.383       .  S
C1073      C1074   1.413       .  A
C1073      C1078   1.430       .  A
C1073      H1080   1.082       .  S
C1074      C1075   1.436       .  A
C1075      C1076   1.400       .  A
C1075      C2266   1.527       .  S
C1076      C1077   1.392       .  A
C1076      H1081   1.081       .  S
C1077      C1078   1.420       .  A
C1078      C1079   1.512       .  S
C1079      F1083   1.384       .  S
C1079      F1084   1.384       .  S
C1079      F1085   1.383       .  S
C1082      C2259   1.527       .  S
C1082      F1086   1.366       .  S
C1082      F1087   1.385   1_655  S
C1082      F1088   1.383       .  S
C1089      C1090   1.419       .  A
C1089      C1094   1.419       .  A
C1089      H1096   1.082       .  S
C1090      C1091   1.423       .  A
C1091      C1092   1.423       .  A
C1091      C1098   1.516       .  S
C1092      C1093   1.409       .  A
C1092      H1097   1.079       .  S
C1093      C1094   1.415       .  A
C1094      C1095   1.517       .  S
C1095      F1099   1.385       .  S
C1095      F1100   1.383       .  S
C1095      F1101   1.377       .  S
C1098      F1102   1.383       .  S
C1098      F1103   1.382       .  S
C1098      F1104   1.384       .  S
C1105      C1106   1.399       .  A
C1105      C1110   1.411       .  A
C1105      H1112   1.084       .  S
C1106      C1107   1.417       .  A
C1107      C1108   1.419       .  A
C1107      C1114   1.514       .  S
C1108      C1109   1.409       .  A
C1108      H1113   1.083       .  S
C1109      C1110   1.427       .  A
C1110      C1111   1.514       .  S
C1111      F1115   1.383       .  S
C1111      F1116   1.374       .  S
C1111      F1117   1.382       .  S
C1114      F1118   1.383       .  S
C1114      F1119   1.371       .  S
C1114      F1120   1.385       .  S
C1121      C1122   1.414       .  A
C1121      C1126   1.444       .  A
C1121      H1128   1.082       .  S
C1122      C1123   1.416       .  A
C1123      C1124   1.389       .  A
C1123      C1130   1.522       .  S
C1124      C1125   1.393       .  A
C1124      H1129   1.066       .  S
C1125      C1126   1.435       .  A
C1126      C1127   1.509       .  S
C1127      F1131   1.384       .  S
C1127      F1132   1.383       .  S
C1127      F1133   1.383       .  S
C1130      F1134   1.376       .  S
C1130      F1135   1.382       .  S
C1130      F1136   1.375       .  S
C1137      C1138   1.406       .  A
C1137      C1142   1.426       .  A
C1137      H1144   1.083       .  S
C1138      C1139   1.418       .  A
C1139      C1140   1.413       .  A
C1139      C1146   1.501       .  S
C1140      C1141   1.407       .  A
C1140      H1145   1.084       .  S
C1141      C1142   1.435       .  A
C1142      C1143   1.518       .  S
C1143      F1147   1.385       .  S
C1143      F1148   1.384       .  S
C1143      F1149   1.382       .  S
C1146      F1150   1.370       .  S
C1146      F1151   1.382       .  S
C1146      F1152   1.370       .  S
C1153      C2338   1.405       .  A
C1153      C1158   1.407       .  A
C1153      H1160   1.083       .  S
C1154      C2337   1.405   1_455  A
C1154      C1155   1.418       .  A
C1155      C1156   1.406       .  A
C1155      C1162   1.514       .  S
C1156      C1157   1.400       .  A
C1156      H1161   1.083       .  S
C1157      C2342   1.413   1_455  A
C1158      C2341   1.413       .  A
C1158      C1159   1.518       .  S
C1159      F1163   1.384       .  S
C1159      F1164   1.384       .  S
C1159      F1165   1.382       .  S
C1162      F1166   1.380       .  S
C1162      F1167   1.384       .  S
C1162      F1168   1.385       .  S
C1169      C1170   1.411       .  A
C1169      C1766   1.394   1_465  A
C1169      H2360   1.083   1_455  S
C1171      C1172   1.387       .  A
C1171      C1178   1.516       .  S
C1172      C2357   1.398   1_455  A
C1172      H1177   1.084       .  S
C1173      C2356   1.398       .  A
C1173      C1174   1.401       .  A
C1174      C1761   1.394       .  A
C1175      F1179   1.377       .  S
C1175      F1181   1.383   1_565  S
H1176      C2353   1.083       .  S
C1178      F1182   1.383       .  S
C1178      F1183   1.382       .  S
C1178      F1184   1.379       .  S
O1185      C1206   1.244       .  A
O1186      C1195   1.278       .  A
O1186     Ni1209   1.909       .  S
O1187     Ni1191   1.853       .  S
O1187     Ni1209   1.900       .  S
O1187      H1210   0.960       .  S
C1188      O1205   1.242       .  A
C1188      O1197   1.285       .  A
C1188      C1434   1.507       .  S
O1189      C1195   1.281       .  A
O1190      C1192   1.269       .  A
Ni1191     O1194   1.970       .  S
C1192      O1202   1.283       .  A
C1192      C1402   1.505       .  S
O1193      C1199   1.291       .  A
O1193     Ni1209   1.951       .  S
O1194      C1199   1.291       .  A
C1195      C1453   1.472       .  S
O1196      C1198   1.230       .  A
O1197     Ni1208   2.017       .  S
C1198      O1204   1.276       .  A
C1198      C1421   1.500       .  S
C1199      C1389   1.510       .  S
H1200      O1201   0.966       .  S
O1201     Ni1203   1.897       .  S
O1201     Ni1208   1.943       .  S
Ni1203     O1207   1.893       .  S
Ni1203     O1205   1.871       .  S
C1206      O1207   1.244       .  A
C1206      C1469   1.425       .  S
O1211      C1232   1.284       .  A
O1211     Ni1217   1.947       .  S
O1212      C1221   1.250       .  A
O1212     Ni1235   1.897       .  S
O1213     Ni1217   1.916       .  S
O1213     Ni1235   1.897       .  S
O1213     Ni1229   1.957       .  S
O1213      H1236   0.966       .  S
C1214      O1231   1.311   1_655  A
C1214      O1223   1.273   1_655  A
C1214      C1370   1.514       .  S
O1215      C1221   1.251       .  A
O1215     Ni1234   1.886       .  S
O1216      C1218   1.255       .  A
O1216     Ni1234   1.867       .  S
Ni1217     O1220   1.991       .  S
Ni1217     O1222   1.933       .  S
C1218      O1228   1.279       .  A
C1218      C1341   1.491       .  S
O1219      C1225   1.247       .  A
O1219     Ni1235   1.845       .  S
O1220      C1225   1.286       .  A
C1221      C1466   1.442       .  S
C1224      C1354   1.506       .  S
C1225      C1322   1.488       .  S
O1227     Ni1235   1.894       .  S
O1227     Ni1229   1.857       .  S
O1227     Ni1234   1.857       .  S
O1228     Ni1229   1.980       .  S
Ni1229     O1233   1.911       .  S
O1230     Ni1235   1.955       .  S
C1232      O1233   1.281       .  A
C1232      C1450   1.481       .  S
O1237      C1258   1.255       .  A
O1237     Ni1835   1.861       .  S
O1238      C1247   1.281       .  A
O1238     Ni1261   1.899       .  S
O1239     Ni1243   1.893       .  S
O1239     Ni1853   1.868       .  S
O1239     Ni2143   1.931       .  S
O1239      H1262   0.965       .  S
C1240      O1257   1.263       .  A
C1240      O1249   1.290       .  A
C1240      C1386   1.527       .  S
O1241      C1543   1.288       .  A
O1241     Ni1260   1.954       .  S
O1242      C1244   1.270       .  A
O1242     Ni1852   1.925       .  S
Ni1243     O1829   1.861       .  S
Ni1243     O1246   1.872       .  S
Ni1243     O1840   1.896       .  S
C1244      O1254   1.282       .  A
C1244      C1325   1.519       .  S
O1245      C1251   1.297       .  A
O1245     Ni1853   1.992       .  S
O1246      C1251   1.269       .  A
C1247      O1537   1.288       .  A
C1247      C1293   1.475       .  S
O1248      C1250   1.261       .  A
O1248     Ni1835   1.896       .  S
O1249     Ni1260   2.004       .  S
C1250      O1256   1.283       .  A
C1250      C1405   1.499       .  S
C1251      C1338   1.484       .  S
H1252      O1549   0.966       .  S
O1253     Ni1557   1.935   1_554  S
O1253     Ni1255   1.863       .  S
O1253     Ni1260   1.893       .  S
O1253      H1548   0.966       .  S
O1254     Ni1847   1.972       .  S
Ni1255     O1846   1.972       .  S
Ni1255     O1259   1.841       .  S
Ni1255     O1257   1.892       .  S
Ni1255     O2127   1.931   1_554  S
O1256     Ni1261   1.978       .  S
C1258      O1555   1.252       .  A
C1258      C1309   1.431       .  S
O1259      C1554   1.252   1_554  A
Ni1260     O1834   1.925   1_545  S
Ni1261     O1837   1.992   1_545  S
Ni1261     O1831   1.868       .  S
Ni1261     O1549   1.935       .  S
O1263      C1580   1.288       .  A
O1263     Ni1861   1.953   1_545  S
O1264      C1273   1.262       .  A
O1264     Ni1879   1.878       .  S
O1265     Ni1269   1.893       .  S
O1265     Ni1287   1.865       .  S
O1265     Ni2169   1.941       .  S
O1265      H1288   0.966       .  S
C1266      O1283   1.305       .  A
C1266      O1275   1.268       .  A
C1266      C1418   1.514       .  S
O1267      C1569   1.258   1_554  A
O1267     Ni1286   1.880       .  S
O1268      C1270   1.251       .  A
O1268     Ni1878   1.881       .  S
Ni1269     O1855   1.953       .  S
Ni1269     O1272   2.001       .  S
Ni1269     O1866   1.921       .  S
C1270      O1280   1.280       .  A
C1270      C1357   1.495       .  S
O1271      C1277   1.257       .  A
O1271     Ni1287   1.892       .  S
O1272      C1277   1.288       .  A
C1273      O1563   1.258       .  A
C1273      C1306   1.436   1_655  S
O1274      C1276   1.271       .  A
O1274     Ni1861   1.921   1_545  S
O1275     Ni1286   1.857   1_545  S
C1276      O1282   1.290       .  A
C1276      C1437   1.528       .  S
C1277      C1373   1.494       .  S
H1278      O1279   0.964   1_546  S
O1279     Ni2175   1.907   1_554  S
O1279     Ni1281   1.865       .  S
O1279     Ni1286   1.851       .  S
O1280     Ni1873   1.989       .  S
Ni1281     O1872   1.989       .  S
Ni1281     O1285   1.902   1_565  S
Ni1281     O1283   2.028   1_565  S
Ni1281     O2153   1.941   1_554  S
O1282     Ni1879   1.991   1_545  S
C1284      O1559   1.288       .  A
C1284      O1285   1.283   1_556  A
C1284      C1290   1.475       .  S
Ni1286     O1860   1.881       .  S
Ni1287     O1856   1.878       .  S
Ni1287     O1874   1.991       .  S
Ni1287     O2167   1.907       .  S
C1289      C1882   1.402   1_554  A
C1289      C1294   1.406       .  A
C1289      H1296   1.083       .  S
C1290      C1881   1.402   1_546  A
C1290      C1587   1.416       .  A
C1291      C1586   1.416       .  A
C1291      C1292   1.408       .  A
C1291      C1298   1.518       .  S
C1292      C1293   1.403       .  A
C1292      H1297   1.083       .  S
C1293      C2182   1.416   1_545  A
C1294      C2181   1.416       .  A
C1294      C1295   1.519       .  S
C1295      F1299   1.385       .  S
C1295      F1300   1.384   1_554  S
C1295      F1301   1.382       .  S
C1298      F1302   1.382       .  S
C1298      F1303   1.383       .  S
C1298      F1304   1.385       .  S
C1305      C1602   1.402       .  A
C1305      H1312   1.078   1_455  S
C1306      C1601   1.402       .  A
C1307      C1308   1.393       .  A
C1308      C1901   1.409       .  A
C1308      H1313   1.080       .  S
C1309      C1900   1.409   1_545  A
C1309      C1606   1.403       .  A
C1310      C1605   1.403   1_554  A
C1310      C1311   1.527       .  S
C1311      F1315   1.375       .  S
C1311      F1612   1.383       .  S
C1311      F1317   1.381       .  S
C1314      F1318   1.366       .  S
C1314      F1615   1.385       .  S
F1316      C1607   1.383       .  S
F1319      C1610   1.385       .  S
C1321      C1322   1.407       .  A
C1321      C1326   1.421       .  A
C1321      H1328   1.083       .  S
C1322      C1323   1.404       .  A
C1323      C1324   1.418       .  A
C1323      C1330   1.505       .  S
C1324      C1325   1.411       .  A
C1324      H1329   1.084       .  S
C1325      C1326   1.429       .  A
C1326      C1327   1.518       .  S
C1327      F1331   1.385       .  S
C1327      F1924   1.383       .  S
C1327      F1333   1.383       .  S
C1330      F1334   1.383       .  S
C1330      F1335   1.384       .  S
C1330      F1336   1.362       .  S
F1332      C1919   1.383       .  S
C1337      C1338   1.411       .  A
C1337      C1342   1.414       .  A
C1337      H1344   1.083       .  S
C1338      C1339   1.413       .  A
C1339      C1340   1.412       .  A
C1339      C1346   1.515       .  S
C1340      C1341   1.412       .  A
C1340      H1345   1.084       .  S
C1341      C1342   1.411       .  A
C1342      C1343   1.511       .  S
C1343      F1347   1.384       .  S
C1343      F1348   1.381       .  S
C1343      F1349   1.383       .  S
C1346      F1942   1.383       .  S
C1346      F1351   1.382       .  S
C1346      F1352   1.385       .  S
F1350      C1938   1.383       .  S
C1353      C1354   1.405       .  A
C1353      C1358   1.420       .  A
C1354      C1355   1.416       .  A
C1355      C1356   1.412       .  A
C1355      C1362   1.503       .  S
C1356      C1357   1.403       .  A
C1356      H1361   1.085       .  S
C1357      C1358   1.424       .  A
C1358      C1359   1.512       .  S
C1359      F1364   1.381   1_554  S
C1359      F1365   1.382       .  S
C1362      F1366   1.367       .  S
C1362      F1367   1.383       .  S
C1362      F1368   1.384       .  S
C1369      C1370   1.413       .  A
C1369      C1374   1.430       .  A
C1369      H1376   1.082       .  S
C1370      C1371   1.436       .  A
C1371      C1372   1.400       .  A
C1372      C1373   1.392       .  A
C1372      H1377   1.081       .  S
C1373      C1374   1.420       .  A
C1374      C1375   1.512       .  S
C1375      F1379   1.384       .  S
C1375      F1380   1.384       .  S
C1375      F1381   1.383       .  S
C1378      F1382   1.366       .  S
C1378      F1383   1.385       .  S
C1378      F1384   1.383       .  S
C1385      C1386   1.419       .  A
C1385      C1390   1.419       .  A
C1385      H1392   1.082       .  S
C1386      C1387   1.423       .  A
C1387      C1388   1.423       .  A
C1387      C1394   1.516       .  S
C1388      C1389   1.409       .  A
C1388      H1393   1.079       .  S
C1389      C1390   1.415       .  A
C1390      C1391   1.517       .  S
C1391      F1395   1.385       .  S
C1391      F1396   1.383       .  S
C1391      F1397   1.377       .  S
C1394      F1398   1.383       .  S
C1394      F1399   1.382       .  S
C1394      F1400   1.384       .  S
C1401      C1402   1.399       .  A
C1401      C1406   1.411       .  A
C1401      H1408   1.084       .  S
C1402      C1403   1.417       .  A
C1403      C1404   1.419       .  A
C1403      C1410   1.514       .  S
C1404      C1405   1.409       .  A
C1404      H1409   1.083       .  S
C1405      C1406   1.427       .  A
C1406      C1407   1.514       .  S
C1407      F1411   1.383       .  S
C1407      F1412   1.374       .  S
C1407      F1413   1.382       .  S
C1410      F1414   1.383       .  S
C1410      F1415   1.371       .  S
C1410      F1416   1.385       .  S
C1417      C1418   1.414       .  A
C1417      C1422   1.444       .  A
C1417      H1424   1.082       .  S
C1418      C1419   1.416       .  A
C1419      C1420   1.389       .  A
C1419      C1426   1.522       .  S
C1420      C1421   1.393       .  A
C1420      H1425   1.066       .  S
C1421      C1422   1.435       .  A
C1422      C1423   1.509       .  S
C1423      F1427   1.384       .  S
C1423      F1428   1.383       .  S
C1423      F1429   1.383       .  S
C1426      F1430   1.376       .  S
C1426      F1431   1.382       .  S
C1426      F1432   1.375       .  S
C1433      C1434   1.406       .  A
C1433      C1438   1.426       .  A
C1433      H1440   1.083       .  S
C1434      C1435   1.418       .  A
C1435      C1436   1.413       .  A
C1435      C1442   1.501       .  S
C1436      C1437   1.407       .  A
C1436      H1441   1.084       .  S
C1437      C1438   1.435       .  A
C1438      C1439   1.518       .  S
C1439      F1443   1.385       .  S
C1439      F1444   1.384       .  S
C1439      F1445   1.382       .  S
C1442      F1446   1.370   1_655  S
C1442      F1447   1.382   1_655  S
C1442      F1448   1.370   1_655  S
C1449      C1454   1.407       .  A
C1449      H1456   1.083       .  S
C1450      C1451   1.418       .  A
C1451      C1452   1.406       .  A
C1451      C1458   1.514       .  S
C1452      C1453   1.400       .  A
C1452      H1457   1.083       .  S
C1454      C1455   1.518       .  S
C1455      F1459   1.384       .  S
C1455      F1460   1.384       .  S
C1455      F1461   1.382       .  S
C1458      F1462   1.380       .  S
C1458      F1463   1.384       .  S
C1458      F1464   1.385       .  S
C1465      C1466   1.411       .  A
C1466      C2059   1.412       .  A
C1467      C2058   1.412   1_545  A
C1467      C1468   1.387       .  A
C1467      C1474   1.516       .  S
C1468      H1473   1.084       .  S
C1469      C1470   1.401       .  A
C1470      C2063   1.526   1_545  S
C1471      C2062   1.526       .  S
C1471      F1475   1.377       .  S
C1471      F2068   1.383       .  S
C1471      F1477   1.383       .  S
C1474      F1478   1.383       .  S
C1474      F1479   1.382       .  S
C1474      F1480   1.379       .  S
F1476      C2063   1.383       .  S
O1481      C1502   1.244       .  A
O1482      C1491   1.278       .  A
O1482     Ni1505   1.909       .  S
O1483     Ni1487   1.853       .  S
O1483     Ni1505   1.900       .  S
O1483      H1506   0.960       .  S
C1484      O1501   1.242       .  A
C1484      O1493   1.285       .  A
C1484      C1730   1.507       .  S
O1485      C1491   1.281       .  A
O1486      C1488   1.269       .  A
Ni1487     O1490   1.970       .  S
C1488      O1498   1.283       .  A
C1488      C1698   1.505       .  S
O1489      C1495   1.291       .  A
O1489     Ni1505   1.951       .  S
O1490      C1495   1.291       .  A
C1491      C1749   1.472       .  S
O1492      C1494   1.230       .  A
O1493     Ni1504   2.018       .  S
C1494      O1500   1.276       .  A
C1494      C1717   1.500       .  S
C1495      C1685   1.510       .  S
H1496      O1497   0.966       .  S
O1497     Ni1499   1.897       .  S
O1497     Ni1504   1.943       .  S
Ni1499     O1503   1.893       .  S
Ni1499     O1501   1.871       .  S
C1502      O1503   1.244       .  A
C1502      C1765   1.425       .  S
O1507      C1528   1.284       .  A
O1507     Ni1513   1.947       .  S
O1508      C1517   1.250       .  A
O1508     Ni1531   1.897       .  S
O1509     Ni1513   1.916       .  S
O1509     Ni1531   1.897       .  S
O1509     Ni1525   1.957       .  S
O1509      H1532   0.966       .  S
C1510      O1527   1.311   1_655  A
C1510      O1519   1.273   1_655  A
C1510      C1666   1.514       .  S
O1511      C1517   1.251       .  A
O1511     Ni1530   1.886       .  S
O1512      C1514   1.255       .  A
O1512     Ni1530   1.867       .  S
Ni1513     O1516   1.991       .  S
Ni1513     O1518   1.933       .  S
C1514      O1524   1.279       .  A
C1514      C1637   1.491       .  S
O1515      C1521   1.247       .  A
O1515     Ni1531   1.845       .  S
O1516      C1521   1.286       .  A
C1517      C1762   1.442       .  S
C1520      C1650   1.506       .  S
C1521      C1618   1.488       .  S
O1523     Ni1531   1.894       .  S
O1523     Ni1525   1.857       .  S
O1523     Ni1530   1.857       .  S
O1524     Ni1525   1.980       .  S
Ni1525     O1529   1.911       .  S
O1526     Ni1531   1.955       .  S
C1528      O1529   1.281       .  A
C1528      C1746   1.481       .  S
O1533      C1554   1.255       .  A
O1533     Ni2131   1.861       .  S
O1534      C1543   1.281   1_556  A
O1534     Ni1557   1.899       .  S
O1535     Ni1539   1.893       .  S
O1535     Ni2149   1.868       .  S
O1535     Ni1847   1.931   1_556  S
O1535      H1558   0.965       .  S
C1536      O1553   1.263       .  A
C1536      O1545   1.290       .  A
C1536      C1682   1.527       .  S
O1537     Ni1556   1.954       .  S
O1538      C1540   1.270       .  A
O1538     Ni2148   1.925       .  S
Ni1539     O2125   1.861       .  S
Ni1539     O1542   1.872       .  S
Ni1539     O2136   1.896       .  S
C1540      O1550   1.282       .  A
C1540      C1621   1.519       .  S
O1541      C1547   1.297       .  A
O1541     Ni2149   1.992       .  S
O1542      C1547   1.269       .  A
C1543      C1589   1.475       .  S
O1544      C1546   1.261       .  A
O1544     Ni2131   1.896       .  S
O1545     Ni1556   2.004       .  S
C1546      O1552   1.283       .  A
C1546      C1701   1.499       .  S
C1547      C1634   1.484       .  S
O1549     Ni1551   1.863       .  S
O1549     Ni1556   1.893       .  S
O1550     Ni2143   1.972       .  S
Ni1551     O2142   1.972       .  S
Ni1551     O1555   1.841       .  S
Ni1551     O1553   1.892       .  S
Ni1551     O1831   1.931       .  S
O1552     Ni1557   1.978       .  S
C1554      C1605   1.431       .  S
Ni1556     O2130   1.925   1_545  S
Ni1557     O2133   1.992   1_545  S
Ni1557     O2127   1.868       .  S
O1559     Ni2157   1.953   1_545  S
O1560      C1569   1.262       .  A
O1560     Ni2175   1.878       .  S
O1561     Ni1565   1.893       .  S
O1561     Ni1583   1.865       .  S
O1561     Ni1873   1.941   1_556  S
O1561      H1584   0.966       .  S
C1562      O1579   1.305       .  A
C1562      O1571   1.268       .  A
C1562      C1714   1.514       .  S
O1563     Ni1582   1.880       .  S
O1564      C1566   1.251       .  A
O1564     Ni2174   1.881       .  S
Ni1565     O2151   1.953       .  S
Ni1565     O1568   2.001       .  S
Ni1565     O2162   1.921       .  S
C1566      O1576   1.280       .  A
C1566      C1653   1.495       .  S
O1567      C1573   1.257       .  A
O1567     Ni1583   1.892       .  S
O1568      C1573   1.288       .  A
C1569      C1602   1.436   1_656  S
O1570      C1572   1.271       .  A
O1570     Ni2157   1.921   1_545  S
O1571     Ni1582   1.857   1_545  S
C1572      O1578   1.290       .  A
C1572      C1733   1.528       .  S
C1573      C1669   1.494       .  S
H1574      O1575   0.964   1_545  S
O1575     Ni1879   1.907       .  S
O1575     Ni1577   1.865       .  S
O1575     Ni1582   1.851       .  S
O1576     Ni2169   1.989       .  S
Ni1577     O2168   1.989       .  S
Ni1577     O1581   1.902   1_565  S
Ni1577     O1579   2.028   1_565  S
Ni1577     O1857   1.941       .  S
O1578     Ni2175   1.991   1_545  S
C1580      O1581   1.283       .  A
C1580      C1586   1.475       .  S
Ni1582     O2156   1.881       .  S
Ni1583     O2152   1.878       .  S
Ni1583     O2170   1.991       .  S
Ni1583     O1871   1.907   1_556  S
C1585      C2178   1.402       .  A
C1585      C1590   1.406       .  A
C1585      H1592   1.083       .  S
C1586      C2177   1.402   1_545  A
C1587      C1588   1.408       .  A
C1587      C1594   1.518       .  S
C1588      C1589   1.403   1_556  A
C1588      H1593   1.083       .  S
C1589      C1886   1.416   1_545  A
C1590      C1885   1.416       .  A
C1590      C1591   1.519       .  S
C1591      F1595   1.385       .  S
C1591      F1596   1.384       .  S
C1591      F1597   1.382       .  S
C1594      F1598   1.382       .  S
C1594      F1599   1.383       .  S
C1594      F1600   1.385       .  S
C1601      H1608   1.078   1_455  S
C1603      C1604   1.393       .  A
C1604      C2197   1.409       .  A
C1604      H1609   1.080       .  S
C1605      C2196   1.409   1_545  A
C1606      C1607   1.527       .  S
C1607      F1611   1.375       .  S
C1607      F1613   1.381       .  S
C1610      F1614   1.366       .  S
C1617      C1618   1.407       .  A
C1617      C1622   1.421       .  A
C1617      H1624   1.083       .  S
C1618      C1619   1.404       .  A
C1619      C1620   1.418       .  A
C1619      C1626   1.505       .  S
C1620      C1621   1.411       .  A
C1620      H1625   1.084       .  S
C1621      C1622   1.429       .  A
C1622      C1623   1.518       .  S
C1623      F1627   1.385       .  S
C1623      F2220   1.383       .  S
C1623      F1629   1.383       .  S
C1626      F1630   1.383       .  S
C1626      F1631   1.384       .  S
C1626      F1632   1.362       .  S
F1628      C2215   1.383       .  S
C1633      C1634   1.411       .  A
C1633      C1638   1.414       .  A
C1633      H1640   1.083       .  S
C1634      C1635   1.413       .  A
C1635      C1636   1.412       .  A
C1635      C1642   1.515       .  S
C1636      C1637   1.412       .  A
C1636      H1641   1.084       .  S
C1637      C1638   1.411       .  A
C1638      C1639   1.511       .  S
C1639      F1643   1.384       .  S
C1639      F1644   1.381       .  S
C1639      F1645   1.383       .  S
C1642      F2238   1.383       .  S
C1642      F1647   1.382       .  S
C1642      F1648   1.385       .  S
F1646      C2234   1.383       .  S
C1649      C1650   1.405       .  A
C1649      C1654   1.420       .  A
C1650      C1651   1.416       .  A
C1651      C1652   1.412       .  A
C1651      C1658   1.503       .  S
C1652      C1653   1.403       .  A
C1652      H1657   1.085       .  S
C1653      C1654   1.424       .  A
C1654      C1655   1.512       .  S
C1655      F1660   1.381       .  S
C1655      F1661   1.382       .  S
C1658      F1662   1.367       .  S
C1658      F1663   1.383       .  S
C1658      F1664   1.384       .  S
C1665      C1666   1.413       .  A
C1665      C1670   1.430       .  A
C1665      H1672   1.082       .  S
C1666      C1667   1.436       .  A
C1667      C1668   1.400       .  A
C1668      C1669   1.392       .  A
C1668      H1673   1.081       .  S
C1669      C1670   1.420       .  A
C1670      C1671   1.512       .  S
C1671      F1675   1.384       .  S
C1671      F1676   1.384       .  S
C1671      F1677   1.383       .  S
C1674      F1678   1.366       .  S
C1674      F1679   1.385       .  S
C1674      F1680   1.383       .  S
C1681      C1682   1.419       .  A
C1681      C1686   1.419       .  A
C1681      H1688   1.082       .  S
C1682      C1683   1.423       .  A
C1683      C1684   1.423       .  A
C1683      C1690   1.516       .  S
C1684      C1685   1.409       .  A
C1684      H1689   1.079       .  S
C1685      C1686   1.415       .  A
C1686      C1687   1.517       .  S
C1687      F1691   1.385       .  S
C1687      F1692   1.383       .  S
C1687      F1693   1.377       .  S
C1690      F1694   1.383       .  S
C1690      F1695   1.382       .  S
C1690      F1696   1.384       .  S
C1697      C1698   1.399       .  A
C1697      C1702   1.411       .  A
C1697      H1704   1.084       .  S
C1698      C1699   1.417       .  A
C1699      C1700   1.419       .  A
C1699      C1706   1.514       .  S
C1700      C1701   1.409       .  A
C1700      H1705   1.083       .  S
C1701      C1702   1.427       .  A
C1702      C1703   1.514       .  S
C1703      F1707   1.383       .  S
C1703      F1708   1.374       .  S
C1703      F1709   1.382       .  S
C1706      F1710   1.383       .  S
C1706      F1711   1.371       .  S
C1706      F1712   1.385       .  S
C1713      C1714   1.414       .  A
C1713      C1718   1.444       .  A
C1713      H1720   1.082       .  S
C1714      C1715   1.416       .  A
C1715      C1716   1.389       .  A
C1715      C1722   1.522       .  S
C1716      C1717   1.393       .  A
C1716      H1721   1.066       .  S
C1717      C1718   1.435       .  A
C1718      C1719   1.509       .  S
C1719      F1723   1.384       .  S
C1719      F1724   1.383       .  S
C1719      F1725   1.383       .  S
C1722      F1726   1.376       .  S
C1722      F1727   1.382       .  S
C1722      F1728   1.375       .  S
C1729      C1730   1.406       .  A
C1729      C1734   1.426       .  A
C1729      H1736   1.083       .  S
C1730      C1731   1.418       .  A
C1731      C1732   1.413       .  A
C1731      C1738   1.501       .  S
C1732      C1733   1.407       .  A
C1732      H1737   1.084       .  S
C1733      C1734   1.435       .  A
C1734      C1735   1.518       .  S
C1735      F1739   1.385       .  S
C1735      F1740   1.384       .  S
C1735      F1741   1.382       .  S
C1738      F1742   1.370   1_655  S
C1738      F1743   1.382   1_655  S
C1738      F1744   1.370   1_655  S
C1745      C1750   1.407       .  A
C1745      H1752   1.083       .  S
C1746      C1747   1.418       .  A
C1747      C1748   1.406       .  A
C1747      C1754   1.514       .  S
C1748      C1749   1.400       .  A
C1748      H1753   1.083       .  S
C1750      C1751   1.518       .  S
C1751      F1755   1.384       .  S
C1751      F1756   1.384       .  S
C1751      F1757   1.382       .  S
C1754      F1758   1.380       .  S
C1754      F1759   1.384       .  S
C1754      F1760   1.385       .  S
C1761      C1762   1.411       .  A
C1762      C2355   1.412       .  A
C1763      C2354   1.412   1_545  A
C1763      C1764   1.387       .  A
C1763      C1770   1.516       .  S
C1764      H1769   1.084       .  S
C1765      C1766   1.401       .  A
C1766      C2359   1.526   1_545  S
C1767      C2358   1.526       .  S
C1767      F1771   1.377       .  S
C1767      F2364   1.383       .  S
C1767      F1773   1.383       .  S
C1770      F1774   1.383       .  S
C1770      F1775   1.382       .  S
C1770      F1776   1.379       .  S
F1772      C2359   1.383       .  S
O1777      C1798   1.244       .  A
O1778      C1787   1.278       .  A
O1778     Ni1801   1.909       .  S
O1779     Ni1783   1.853       .  S
O1779     Ni1801   1.900       .  S
O1779      H1802   0.960       .  S
C1780      O1797   1.242       .  A
C1780      O1789   1.285       .  A
C1780      C2026   1.507       .  S
O1781      C1787   1.281       .  A
O1782      C1784   1.269       .  A
Ni1783     O1786   1.970       .  S
C1784      O1794   1.283       .  A
C1784      C1994   1.505       .  S
O1785      C1791   1.291       .  A
O1785     Ni1801   1.951       .  S
O1786      C1791   1.291       .  A
C1787      C2045   1.472       .  S
O1788      C1790   1.230       .  A
O1789     Ni1800   2.017       .  S
C1790      O1796   1.276       .  A
C1790      C2013   1.500       .  S
C1791      C1981   1.510       .  S
H1792      O1793   0.966       .  S
O1793     Ni1795   1.897       .  S
O1793     Ni1800   1.943       .  S
Ni1795     O1799   1.893       .  S
Ni1795     O1797   1.871       .  S
C1798      O1799   1.244       .  A
C1798      C2061   1.425       .  S
O1803      C1824   1.284       .  A
O1803     Ni1809   1.947       .  S
O1804      C1813   1.250       .  A
O1804     Ni1827   1.897       .  S
O1805     Ni1809   1.916       .  S
O1805     Ni1827   1.897       .  S
O1805     Ni1821   1.957       .  S
O1805      H1828   0.966       .  S
C1806      O1823   1.311   1_655  A
C1806      O1815   1.273   1_655  A
C1806      C1962   1.514       .  S
O1807      C1813   1.251       .  A
O1807     Ni1826   1.886       .  S
O1808      C1810   1.255       .  A
O1808     Ni1826   1.867       .  S
Ni1809     O1812   1.991       .  S
Ni1809     O1814   1.933       .  S
C1810      O1820   1.279       .  A
C1810      C1933   1.491       .  S
O1811      C1817   1.247       .  A
O1811     Ni1827   1.845       .  S
O1812      C1817   1.286       .  A
C1813      C2058   1.442       .  S
C1816      C1946   1.506       .  S
C1817      C1914   1.488       .  S
O1819     Ni1827   1.894       .  S
O1819     Ni1821   1.857       .  S
O1819     Ni1826   1.857       .  S
O1820     Ni1821   1.980       .  S
Ni1821     O1825   1.911       .  S
O1822     Ni1827   1.955       .  S
C1824      O1825   1.281       .  A
C1824      C2042   1.481       .  S
O1829      C1850   1.255       .  A
O1830      C1839   1.281       .  A
O1830     Ni1853   1.899       .  S
O1831     Ni1835   1.893       .  S
O1831      H1854   0.965   1_545  S
C1832      O1849   1.263       .  A
C1832      O1841   1.290       .  A
C1832      C1978   1.527       .  S
O1833      C2135   1.288       .  A
O1833     Ni1852   1.954       .  S
O1834      C1836   1.270       .  A
Ni1835     O1838   1.872   1_545  S
C1836      O1846   1.282   1_565  A
C1836      C1917   1.519       .  S
O1837      C1843   1.297       .  A
O1838      C1843   1.269       .  A
C1839      O2129   1.288       .  A
C1839      C1885   1.475       .  S
O1840      C1842   1.261       .  A
O1841     Ni1852   2.004       .  S
C1842      O1848   1.283       .  A
C1842      C1997   1.499       .  S
C1843      C1930   1.484       .  S
H1844      O2141   0.966       .  S
O1845     Ni2149   1.935   1_554  S
O1845     Ni1847   1.863       .  S
O1845     Ni1852   1.893       .  S
O1845      H2140   0.966       .  S
Ni1847     O1851   1.841       .  S
Ni1847     O1849   1.892       .  S
O1848     Ni1853   1.978       .  S
C1850      O2147   1.252       .  A
C1850      C1901   1.431       .  S
O1851      C2146   1.252   1_554  A
Ni1853     O2141   1.935       .  S
O1855      C2172   1.288       .  A
O1856      C1865   1.262       .  A
O1857     Ni1861   1.893       .  S
O1857     Ni1879   1.865       .  S
O1857      H1880   0.966       .  S
C1858      O1875   1.305       .  A
C1858      O1867   1.268       .  A
C1858      C2010   1.514       .  S
O1859      C2161   1.258   1_554  A
O1859     Ni1878   1.880       .  S
O1860      C1862   1.251       .  A
Ni1861     O1864   2.001       .  S
C1862      O1872   1.280       .  A
C1862      C1949   1.495       .  S
O1863      C1869   1.257       .  A
O1863     Ni1879   1.892       .  S
O1864      C1869   1.288       .  A
C1865      O2155   1.258       .  A
C1865      C1898   1.436   1_655  S
O1866      C1868   1.271       .  A
O1867     Ni1878   1.857       .  S
C1868      O1874   1.290       .  A
C1868      C2029   1.528       .  S
C1869      C1965   1.494       .  S
H1870      O1871   0.964   1_556  S
O1871     Ni1873   1.865       .  S
O1871     Ni1878   1.851       .  S
Ni1873     O1877   1.902       .  S
Ni1873     O1875   2.028       .  S
C1876      O2151   1.288       .  A
C1876      O1877   1.283   1_556  A
C1876      C1882   1.475       .  S
C1881      C1886   1.406       .  A
C1881      H1888   1.083       .  S
C1882      C2179   1.416       .  A
C1883      C2178   1.416       .  A
C1883      C1884   1.408       .  A
C1883      C1890   1.518       .  S
C1884      C1885   1.403       .  A
C1884      H1889   1.083       .  S
C1886      C1887   1.519       .  S
C1887      F1891   1.385       .  S
C1887      F1892   1.384   1_554  S
C1887      F1893   1.382       .  S
C1890      F1894   1.382       .  S
C1890      F1895   1.383       .  S
C1890      F1896   1.385       .  S
C1897      C2194   1.402       .  A
C1897      H1904   1.078   1_455  S
C1898      C2193   1.402       .  A
C1899      C1900   1.393       .  A
C1900      H1905   1.080       .  S
C1901      C2198   1.403       .  A
C1902      C2197   1.403   1_554  A
C1902      C1903   1.527       .  S
C1903      F1907   1.375       .  S
C1903      F2204   1.383       .  S
C1903      F1909   1.381       .  S
C1906      F1910   1.366       .  S
C1906      F2207   1.385       .  S
F1908      C2199   1.383       .  S
F1911      C2202   1.385       .  S
C1913      C1914   1.407       .  A
C1913      C1918   1.421       .  A
C1913      H1920   1.083       .  S
C1914      C1915   1.404       .  A
C1915      C1916   1.418       .  A
C1915      C1922   1.505       .  S
C1916      C1917   1.411       .  A
C1916      H1921   1.084       .  S
C1917      C1918   1.429       .  A
C1918      C1919   1.518       .  S
C1919      F1923   1.385       .  S
C1919      F1925   1.383       .  S
C1922      F1926   1.383       .  S
C1922      F1927   1.384       .  S
C1922      F1928   1.362       .  S
C1929      C1930   1.411       .  A
C1929      C1934   1.414       .  A
C1929      H1936   1.083       .  S
C1930      C1931   1.413       .  A
C1931      C1932   1.412       .  A
C1931      C1938   1.515       .  S
C1932      C1933   1.412       .  A
C1932      H1937   1.084       .  S
C1933      C1934   1.411       .  A
C1934      C1935   1.511       .  S
C1935      F1939   1.384       .  S
C1935      F1940   1.381       .  S
C1935      F1941   1.383       .  S
C1938      F1943   1.382   1_565  S
C1938      F1944   1.385       .  S
C1945      C1946   1.405       .  A
C1945      C1950   1.420       .  A
C1946      C1947   1.416       .  A
C1947      C1948   1.412       .  A
C1947      C1954   1.503       .  S
C1948      C1949   1.403       .  A
C1948      H1953   1.085       .  S
C1949      C1950   1.424       .  A
C1950      C1951   1.512       .  S
C1951      F1956   1.381   1_554  S
C1951      F1957   1.382       .  S
C1954      F1958   1.367       .  S
C1954      F1959   1.383       .  S
C1954      F1960   1.384       .  S
C1961      C1962   1.413       .  A
C1961      C1966   1.430       .  A
C1961      H1968   1.082       .  S
C1962      C1963   1.436       .  A
C1963      C1964   1.400       .  A
C1964      C1965   1.392       .  A
C1964      H1969   1.081       .  S
C1965      C1966   1.420       .  A
C1966      C1967   1.512       .  S
C1967      F1971   1.384       .  S
C1967      F1972   1.384       .  S
C1967      F1973   1.383       .  S
C1970      F1974   1.366       .  S
C1970      F1975   1.385       .  S
C1970      F1976   1.383       .  S
C1977      C1978   1.419       .  A
C1977      C1982   1.419       .  A
C1977      H1984   1.082       .  S
C1978      C1979   1.423       .  A
C1979      C1980   1.423       .  A
C1979      C1986   1.516       .  S
C1980      C1981   1.409       .  A
C1980      H1985   1.079       .  S
C1981      C1982   1.415       .  A
C1982      C1983   1.517       .  S
C1983      F1987   1.385       .  S
C1983      F1988   1.383       .  S
C1983      F1989   1.377       .  S
C1986      F1990   1.383       .  S
C1986      F1991   1.382       .  S
C1986      F1992   1.384       .  S
C1993      C1994   1.399       .  A
C1993      C1998   1.411       .  A
C1993      H2000   1.084       .  S
C1994      C1995   1.417       .  A
C1995      C1996   1.419       .  A
C1995      C2002   1.514       .  S
C1996      C1997   1.409       .  A
C1996      H2001   1.083       .  S
C1997      C1998   1.427       .  A
C1998      C1999   1.514       .  S
C1999      F2003   1.383       .  S
C1999      F2004   1.374       .  S
C1999      F2005   1.382       .  S
C2002      F2006   1.383       .  S
C2002      F2007   1.371       .  S
C2002      F2008   1.385       .  S
C2009      C2010   1.414       .  A
C2009      C2014   1.444       .  A
C2009      H2016   1.082       .  S
C2010      C2011   1.416       .  A
C2011      C2012   1.389       .  A
C2011      C2018   1.522       .  S
C2012      C2013   1.393       .  A
C2012      H2017   1.066       .  S
C2013      C2014   1.435       .  A
C2014      C2015   1.509       .  S
C2015      F2019   1.384       .  S
C2015      F2020   1.383       .  S
C2015      F2021   1.383       .  S
C2018      F2022   1.376       .  S
C2018      F2023   1.382       .  S
C2018      F2024   1.375       .  S
C2025      C2026   1.406       .  A
C2025      C2030   1.426       .  A
C2025      H2032   1.083       .  S
C2026      C2027   1.418       .  A
C2027      C2028   1.413       .  A
C2027      C2034   1.501       .  S
C2028      C2029   1.407       .  A
C2028      H2033   1.084       .  S
C2029      C2030   1.435       .  A
C2030      C2031   1.518       .  S
C2031      F2035   1.385       .  S
C2031      F2036   1.384       .  S
C2031      F2037   1.382       .  S
C2034      F2038   1.370   1_655  S
C2034      F2039   1.382   1_655  S
C2034      F2040   1.370   1_655  S
C2041      C2046   1.407       .  A
C2041      H2048   1.083       .  S
C2042      C2043   1.418       .  A
C2043      C2044   1.406       .  A
C2043      C2050   1.514       .  S
C2044      C2045   1.400       .  A
C2044      H2049   1.083       .  S
C2046      C2047   1.518       .  S
C2047      F2051   1.384       .  S
C2047      F2052   1.384       .  S
C2047      F2053   1.382       .  S
C2050      F2054   1.380       .  S
C2050      F2055   1.384       .  S
C2050      F2056   1.385       .  S
C2057      C2058   1.411       .  A
C2059      C2060   1.387       .  A
C2059      C2066   1.516       .  S
C2060      H2065   1.084       .  S
C2061      C2062   1.401       .  A
C2063      F2067   1.377       .  S
C2063      F2069   1.383   1_565  S
C2066      F2070   1.383       .  S
C2066      F2071   1.382       .  S
C2066      F2072   1.379       .  S
O2073      C2094   1.244       .  A
O2074      C2083   1.278       .  A
O2074     Ni2097   1.909       .  S
O2075     Ni2079   1.853       .  S
O2075     Ni2097   1.900       .  S
O2075      H2098   0.960       .  S
C2076      O2093   1.242       .  A
C2076      O2085   1.285       .  A
C2076      C2322   1.507       .  S
O2077      C2083   1.281       .  A
O2078      C2080   1.269       .  A
Ni2079     O2082   1.970       .  S
C2080      O2090   1.283       .  A
C2080      C2290   1.505       .  S
O2081      C2087   1.291       .  A
O2081     Ni2097   1.951       .  S
O2082      C2087   1.291       .  A
C2083      C2341   1.472       .  S
O2084      C2086   1.230       .  A
O2085     Ni2096   2.018       .  S
C2086      O2092   1.276       .  A
C2086      C2309   1.500       .  S
C2087      C2277   1.510       .  S
H2088      O2089   0.966       .  S
O2089     Ni2091   1.897       .  S
O2089     Ni2096   1.943       .  S
Ni2091     O2095   1.893       .  S
Ni2091     O2093   1.871       .  S
C2094      O2095   1.244       .  A
C2094      C2357   1.425       .  S
O2099      C2120   1.284       .  A
O2099     Ni2105   1.947       .  S
O2100      C2109   1.250       .  A
O2100     Ni2123   1.897       .  S
O2101     Ni2105   1.916       .  S
O2101     Ni2123   1.897       .  S
O2101     Ni2117   1.957       .  S
O2101      H2124   0.966       .  S
C2102      O2119   1.311   1_655  A
C2102      O2111   1.273   1_655  A
C2102      C2258   1.514       .  S
O2103      C2109   1.251       .  A
O2103     Ni2122   1.886       .  S
O2104      C2106   1.255       .  A
O2104     Ni2122   1.867       .  S
Ni2105     O2108   1.991       .  S
Ni2105     O2110   1.933       .  S
C2106      O2116   1.279       .  A
C2106      C2229   1.491       .  S
O2107      C2113   1.247       .  A
O2107     Ni2123   1.845       .  S
O2108      C2113   1.286       .  A
C2109      C2354   1.442       .  S
C2112      C2242   1.506       .  S
C2113      C2210   1.488       .  S
O2115     Ni2123   1.894       .  S
O2115     Ni2117   1.857       .  S
O2115     Ni2122   1.857       .  S
O2116     Ni2117   1.980       .  S
Ni2117     O2121   1.911       .  S
O2118     Ni2123   1.955       .  S
C2120      O2121   1.281       .  A
C2120      C2338   1.481       .  S
O2125      C2146   1.255       .  A
O2126      C2135   1.281   1_556  A
O2126     Ni2149   1.899       .  S
O2127     Ni2131   1.893       .  S
O2127      H2150   0.965   1_545  S
C2128      O2145   1.263       .  A
C2128      O2137   1.290       .  A
C2128      C2274   1.527       .  S
O2129     Ni2148   1.954       .  S
O2130      C2132   1.270       .  A
Ni2131     O2134   1.872   1_545  S
C2132      O2142   1.282   1_565  A
C2132      C2213   1.519       .  S
O2133      C2139   1.297       .  A
O2134      C2139   1.269       .  A
C2135      C2181   1.475       .  S
O2136      C2138   1.261       .  A
O2137     Ni2148   2.004       .  S
C2138      O2144   1.283       .  A
C2138      C2293   1.499       .  S
C2139      C2226   1.484       .  S
O2141     Ni2143   1.863       .  S
O2141     Ni2148   1.893       .  S
Ni2143     O2147   1.841       .  S
Ni2143     O2145   1.892       .  S
O2144     Ni2149   1.978       .  S
C2146      C2197   1.431       .  S
O2152      C2161   1.262       .  A
O2153     Ni2157   1.893       .  S
O2153     Ni2175   1.865       .  S
O2153      H2176   0.966       .  S
C2154      O2171   1.305       .  A
C2154      O2163   1.268       .  A
C2154      C2306   1.514       .  S
O2155     Ni2174   1.880       .  S
O2156      C2158   1.251       .  A
Ni2157     O2160   2.001       .  S
C2158      O2168   1.280       .  A
C2158      C2245   1.495       .  S
O2159      C2165   1.257       .  A
O2159     Ni2175   1.892       .  S
O2160      C2165   1.288       .  A
C2161      C2194   1.436   1_656  S
O2162      C2164   1.271       .  A
O2163     Ni2174   1.857       .  S
C2164      O2170   1.290       .  A
C2164      C2325   1.528       .  S
C2165      C2261   1.494       .  S
H2166      O2167   0.964       .  S
O2167     Ni2169   1.865       .  S
O2167     Ni2174   1.851       .  S
Ni2169     O2173   1.902       .  S
Ni2169     O2171   2.028       .  S
C2172      O2173   1.283       .  A
C2172      C2178   1.475       .  S
C2177      C2182   1.406       .  A
C2177      H2184   1.083       .  S
C2179      C2180   1.408       .  A
C2179      C2186   1.518       .  S
C2180      C2181   1.403   1_556  A
C2180      H2185   1.083       .  S
C2182      C2183   1.519       .  S
C2183      F2187   1.385       .  S
C2183      F2188   1.384       .  S
C2183      F2189   1.382       .  S
C2186      F2190   1.382       .  S
C2186      F2191   1.383       .  S
C2186      F2192   1.385       .  S
C2193      H2200   1.078   1_455  S
C2195      C2196   1.393       .  A
C2196      H2201   1.080       .  S
C2198      C2199   1.527       .  S
C2199      F2203   1.375       .  S
C2199      F2205   1.381       .  S
C2202      F2206   1.366       .  S
C2209      C2210   1.407       .  A
C2209      C2214   1.421       .  A
C2209      H2216   1.083       .  S
C2210      C2211   1.404       .  A
C2211      C2212   1.418       .  A
C2211      C2218   1.505       .  S
C2212      C2213   1.411       .  A
C2212      H2217   1.084       .  S
C2213      C2214   1.429       .  A
C2214      C2215   1.518       .  S
C2215      F2219   1.385       .  S
C2215      F2221   1.383       .  S
C2218      F2222   1.383       .  S
C2218      F2223   1.384       .  S
C2218      F2224   1.362       .  S
C2225      C2226   1.411       .  A
C2225      C2230   1.414       .  A
C2225      H2232   1.083       .  S
C2226      C2227   1.413       .  A
C2227      C2228   1.412       .  A
C2227      C2234   1.515       .  S
C2228      C2229   1.412       .  A
C2228      H2233   1.084       .  S
C2229      C2230   1.411       .  A
C2230      C2231   1.511       .  S
C2231      F2235   1.384       .  S
C2231      F2236   1.381       .  S
C2231      F2237   1.383       .  S
C2234      F2239   1.382   1_565  S
C2234      F2240   1.385       .  S
C2241      C2242   1.405       .  A
C2241      C2246   1.420       .  A
C2242      C2243   1.416       .  A
C2243      C2244   1.412       .  A
C2243      C2250   1.503       .  S
C2244      C2245   1.403       .  A
C2244      H2249   1.085       .  S
C2245      C2246   1.424       .  A
C2246      C2247   1.512       .  S
C2247      F2252   1.381       .  S
C2247      F2253   1.382       .  S
C2250      F2254   1.367       .  S
C2250      F2255   1.383       .  S
C2250      F2256   1.384       .  S
C2257      C2258   1.413       .  A
C2257      C2262   1.430       .  A
C2257      H2264   1.082       .  S
C2258      C2259   1.436       .  A
C2259      C2260   1.400       .  A
C2260      C2261   1.392       .  A
C2260      H2265   1.081       .  S
C2261      C2262   1.420       .  A
C2262      C2263   1.512       .  S
C2263      F2267   1.384       .  S
C2263      F2268   1.384       .  S
C2263      F2269   1.383       .  S
C2266      F2270   1.366       .  S
C2266      F2271   1.385       .  S
C2266      F2272   1.383       .  S
C2273      C2274   1.419       .  A
C2273      C2278   1.419       .  A
C2273      H2280   1.082       .  S
C2274      C2275   1.423       .  A
C2275      C2276   1.423       .  A
C2275      C2282   1.516       .  S
C2276      C2277   1.409       .  A
C2276      H2281   1.079       .  S
C2277      C2278   1.415       .  A
C2278      C2279   1.517       .  S
C2279      F2283   1.385       .  S
C2279      F2284   1.383       .  S
C2279      F2285   1.377       .  S
C2282      F2286   1.383       .  S
C2282      F2287   1.382       .  S
C2282      F2288   1.384       .  S
C2289      C2290   1.399       .  A
C2289      C2294   1.411       .  A
C2289      H2296   1.084       .  S
C2290      C2291   1.417       .  A
C2291      C2292   1.419       .  A
C2291      C2298   1.514       .  S
C2292      C2293   1.409       .  A
C2292      H2297   1.083       .  S
C2293      C2294   1.427       .  A
C2294      C2295   1.514       .  S
C2295      F2299   1.383       .  S
C2295      F2300   1.374       .  S
C2295      F2301   1.382       .  S
C2298      F2302   1.383       .  S
C2298      F2303   1.371       .  S
C2298      F2304   1.385       .  S
C2305      C2306   1.414       .  A
C2305      C2310   1.444       .  A
C2305      H2312   1.082       .  S
C2306      C2307   1.416       .  A
C2307      C2308   1.389       .  A
C2307      C2314   1.522       .  S
C2308      C2309   1.393       .  A
C2308      H2313   1.066       .  S
C2309      C2310   1.435       .  A
C2310      C2311   1.509       .  S
C2311      F2315   1.384       .  S
C2311      F2316   1.383       .  S
C2311      F2317   1.383       .  S
C2314      F2318   1.376       .  S
C2314      F2319   1.382       .  S
C2314      F2320   1.375       .  S
C2321      C2322   1.406       .  A
C2321      C2326   1.426       .  A
C2321      H2328   1.083       .  S
C2322      C2323   1.418       .  A
C2323      C2324   1.413       .  A
C2323      C2330   1.501       .  S
C2324      C2325   1.407       .  A
C2324      H2329   1.084       .  S
C2325      C2326   1.435       .  A
C2326      C2327   1.518       .  S
C2327      F2331   1.385       .  S
C2327      F2332   1.384       .  S
C2327      F2333   1.382       .  S
C2330      F2334   1.370   1_655  S
C2330      F2335   1.382   1_655  S
C2330      F2336   1.370   1_655  S
C2337      C2342   1.407       .  A
C2337      H2344   1.083       .  S
C2338      C2339   1.418       .  A
C2339      C2340   1.406       .  A
C2339      C2346   1.514       .  S
C2340      C2341   1.400       .  A
C2340      H2345   1.083       .  S
C2342      C2343   1.518       .  S
C2343      F2347   1.384       .  S
C2343      F2348   1.384       .  S
C2343      F2349   1.382       .  S
C2346      F2350   1.380       .  S
C2346      F2351   1.384       .  S
C2346      F2352   1.385       .  S
C2353      C2354   1.411       .  A
C2355      C2356   1.387       .  A
C2355      C2362   1.516       .  S
C2356      H2361   1.084       .  S
C2357      C2358   1.401       .  A
C2359      F2363   1.377       .  S
C2359      F2365   1.383   1_565  S
C2362      F2366   1.383       .  S
C2362      F2367   1.382       .  S
C2362      F2368   1.379       .  S
