geometry optimzed in LAMMPS
_audit_creation_date              2020-12-01 
_audit_creation_method            'lammps2cif' 
_symmetry_space_group_name_H-M    'P1' 
_symmetry_Int_Tables_number       1 
_symmetry_cell_setting            triclinic 
loop_ 
_symmetry_equiv_pos_as_xyz 
  x,y,z 
_cell_length_a                    28.8740507 
_cell_length_b                    30.86456995836346 
_cell_length_c                    52.256309058795246 
_cell_angle_alpha                 90.51096712657076 
_cell_angle_beta                  90.00363326511419 
_cell_angle_gamma                 89.67357863718706 
loop_ 
_atom_site_label 
_atom_site_type_symbol 
_atom_site_fract_x 
_atom_site_fract_y 
_atom_site_fract_z 
_atom_site_charge 
O1          O  0.23203522  0.74809033  0.21820448    -0.72800
O2          O  0.12295050  0.73372690  0.26533703    -0.73800
O3          O  0.16153646  0.68492844  0.22382017    -0.62400
O4          O  0.19353449  0.79720189  0.25991532    -0.70800
O5          O  0.14986204  0.83283728  0.23206185    -0.70400
O6          O  0.11756894  0.72150001  0.19654338    -0.61600
O7          O  0.07979159  0.77059618  0.23777201    -0.74100
O8          O  0.18721183  0.78448787  0.19121520    -0.72900
Cu9        Cu  0.17913567  0.73965844  0.24283873     1.04600
Cu10       Cu  0.13204844  0.77850603  0.21351229     1.04300
C11         C  0.22653589  0.76871907  0.19729949     0.93400
C12         C  0.08411837  0.75028022  0.25879920     0.92500
C13         C  0.13480707  0.68574819  0.20431363     0.84700
C14         C  0.17673887  0.83274027  0.25146035     0.90900
N15         N  0.49362329  0.79248227  0.13286600    -0.27200
N16         N  0.47260744  0.76414112  0.14764807    -0.35000
C17         C  0.50389747  0.74585398  0.16310833     0.01200
C18         C  0.54648469  0.76379343  0.15798984     0.07200
C19         C  0.53902924  0.79289683  0.13852732    -0.05900
H20         H  0.49538355  0.72448240  0.17870640     0.07900
H21         H  0.56363723  0.81569153  0.13087207     0.09100
Cu22       Cu  0.40211972  0.75946661  0.15242378     0.44200
Cu23       Cu  0.45907061  0.83551541  0.10976248     0.42000
Cu24       Cu  0.33651579  0.84266270  0.12198795     0.43900
N25         N  0.33402235  0.77231154  0.16139307    -0.34500
N26         N  0.30986700  0.80307053  0.15000405    -0.28800
C27         C  0.26769595  0.80551658  0.16069082    -0.04900
C28         C  0.26555885  0.77529023  0.17997520     0.07300
C29         C  0.30816963  0.75474573  0.17999304     0.01100
H30         H  0.24114907  0.82864399  0.15540073     0.08800
H31         H  0.31985265  0.72960509  0.19281121     0.07800
N32         N  0.36964801  0.87617240  0.09328496    -0.36000
N33         N  0.41459819  0.87356344  0.08880192    -0.28200
C34         C  0.42411624  0.89348726  0.06669379    -0.03400
C35         C  0.38302581  0.90903689  0.05663909     0.05200
C36         C  0.34928932  0.89783295  0.07413318     0.03300
H37         H  0.45770050  0.89297109  0.05752158     0.08400
H38         H  0.31222386  0.90155059  0.07204153     0.07200
N39         N  0.20831916  0.80968582  0.79515884    -0.27200
N40         N  0.23006567  0.78251332  0.77953693    -0.35000
C41         C  0.20030508  0.76732728  0.76205670     0.01200
C42         C  0.15766477  0.78598887  0.76663181     0.07200
C43         C  0.16360237  0.81245273  0.78791948    -0.05900
H44         H  0.21003187  0.74710840  0.74588283     0.07900
H45         H  0.13833485  0.83432662  0.79633016     0.09100
Cu46       Cu  0.30042085  0.77623085  0.77687877     0.44200
Cu47       Cu  0.24328147  0.84583619  0.82269354     0.42000
Cu48       Cu  0.36713349  0.85564518  0.80986325     0.43900
N49         N  0.36720551  0.79035306  0.76707385    -0.34500
N50         N  0.39182344  0.82038110  0.77889600    -0.28800
C51         C  0.43334130  0.82305863  0.76749837    -0.04900
C52         C  0.43437440  0.79354621  0.74743212     0.07300
C53         C  0.39188937  0.77348173  0.74758604     0.01100
H54         H  0.46056339  0.84502024  0.77328047     0.08800
H55         H  0.37973429  0.74856566  0.73457442     0.07800
N56         N  0.33503983  0.87879746  0.84263111    -0.36000
N57         N  0.29028871  0.87497906  0.84748297    -0.28200
C58         C  0.28199696  0.88898303  0.87149901    -0.03400
C59         C  0.32352679  0.90200304  0.88224849     0.05200
C60         C  0.35634872  0.89522931  0.86338366     0.03300
H61         H  0.24861486  0.88759336  0.88083862     0.08400
H62         H  0.39335938  0.89976096  0.86496668     0.07200
N63         N  0.99142199  0.71906059  0.30165805    -0.27200
N64         N  0.97012399  0.74737845  0.28683992    -0.35000
C65         C  0.00063486  0.76428118  0.27049543     0.01200
C66         C  0.04329534  0.74576401  0.27509766     0.07200
C67         C  0.03654290  0.71745996  0.29513402    -0.05900
H68         H  0.99159548  0.78597183  0.25509830     0.07900
H69         H  0.06160002  0.69506904  0.30302361     0.09100
Cu70       Cu  0.89980099  0.75510837  0.28415214     0.44200
Cu71       Cu  0.95623596  0.67887047  0.32658179     0.42000
Cu72       Cu  0.83204823  0.67552898  0.31573442     0.43900
N73         N  0.83135202  0.74508342  0.27589684    -0.34500
N74         N  0.80628170  0.71568456  0.28767021    -0.28800
C75         C  0.76439923  0.71390896  0.27667665    -0.04900
C76         C  0.76353161  0.74310846  0.25680104     0.07300
C77         C  0.80646631  0.76241181  0.25676730     0.01100
H78         H  0.73745273  0.69143993  0.28192302     0.08800
H79         H  0.81930544  0.78597369  0.24334184     0.07800
N80         N  0.86580984  0.63957667  0.34325330    -0.36000
N81         N  0.91088572  0.64114482  0.34756063    -0.28200
C82         C  0.92064849  0.61794062  0.36856391    -0.03400
C83         C  0.87972202  0.60108852  0.37792481     0.05200
C84         C  0.84574739  0.61528127  0.36128118     0.03300
H85         H  0.95456577  0.61600833  0.37727352     0.08400
H86         H  0.80874471  0.61104670  0.36314831     0.07200
N87         N  0.70773737  0.72854141  0.62541717    -0.27200
N88         N  0.72854078  0.75682415  0.64067312    -0.35000
C89         C  0.69741781  0.77418435  0.65676710     0.01200
C90         C  0.65493319  0.75599554  0.65169044     0.07200
C91         C  0.66238041  0.72733660  0.63155808    -0.05900
H92         H  0.70587675  0.79622334  0.67227636     0.07900
H93         H  0.63754002  0.70525040  0.62319060     0.09100
Cu94       Cu  0.79883350  0.76575116  0.64432044     0.44200
Cu95       Cu  0.74336172  0.68880029  0.59968411     0.42000
Cu96       Cu  0.86826177  0.69239938  0.61002776     0.43900
N97         N  0.86876575  0.76001995  0.65127713    -0.34500
N98         N  0.89476906  0.73244551  0.63816841    -0.28800
C99         C  0.93792092  0.73292666  0.64768040    -0.04900
C100        C  0.93894887  0.76195975  0.66796316     0.07300
C101        C  0.89446817  0.77856647  0.66981364     0.01100
H102        H  0.96586051  0.71213559  0.64110800     0.08800
H103        H  0.88134822  0.80109801  0.68408065     0.07800
N104        N  0.83641471  0.65465817  0.58248023    -0.36000
N105        N  0.79128971  0.65332713  0.57825189    -0.28200
C106        C  0.78342347  0.62828392  0.55748052    -0.03400
C107        C  0.82568102  0.61330561  0.54830741     0.05200
C108        C  0.85835705  0.63058475  0.56470679     0.03300
H109        H  0.74970146  0.62329842  0.54897106     0.08400
H110        H  0.89561130  0.62797964  0.56307938     0.07200
O111        O  0.05047157  0.70317904  0.72061452    -0.72800
O112        O  0.09015018  0.81330360  0.68692472    -0.73800
O113        O  0.12262178  0.76271538  0.72825767    -0.62400
O114        O  0.01736597  0.75276519  0.67949479    -0.70800
O115        O  0.97240542  0.79020000  0.70628537    -0.70400
O116        O  0.07942303  0.80144757  0.75530352    -0.61600
O117        O  0.04555421  0.85122423  0.71362049    -0.74100
O118        O  0.00709557  0.74080994  0.74809204    -0.72900
Cu119      Cu  0.07164891  0.75679457  0.70287662     1.04600
Cu120      Cu  0.02444861  0.79735446  0.73174280     1.04300
C121        C  0.02310464  0.70463588  0.73979808     0.93400
C122        C  0.07436091  0.84966442  0.69503893     0.92500
C123        C  0.11783095  0.78322953  0.74941338     0.84700
C124        C  0.97804936  0.76907329  0.68534632     0.90900
N125        N  0.49097214  0.21790424  0.11908883    -0.27200
N126        N  0.46868017  0.24557558  0.13416907    -0.35000
C127        C  0.49766911  0.26090871  0.15198118     0.01200
C128        C  0.54040913  0.24205212  0.14813167     0.07200
C129        C  0.53535657  0.21515492  0.12695900    -0.05900
H130        H  0.48737481  0.28177796  0.16775657     0.07900
H131        H  0.56094489  0.19309372  0.11902969     0.09100
Cu132      Cu  0.39840522  0.25354681  0.13557243     0.44200
Cu133      Cu  0.45699110  0.18020750  0.09193067     0.42000
Cu134      Cu  0.33201964  0.17387914  0.10324654     0.43900
N135        N  0.33116693  0.24088590  0.14508318    -0.34500
N136        N  0.30635065  0.21109664  0.13319366    -0.28800
C137        C  0.26529080  0.20774177  0.14502136    -0.04900
C138        C  0.26490397  0.23627981  0.16558473     0.07300
C139        C  0.30711139  0.25687153  0.16507543     0.01100
H140        H  0.23830549  0.18533750  0.13950776     0.08800
H141        H  0.31977121  0.28105208  0.17841942     0.07800
N142        N  0.36640570  0.14166239  0.07396254    -0.36000
N143        N  0.41137603  0.14448233  0.06949814    -0.28200
C144        C  0.42108172  0.12396226  0.04732262    -0.03400
C145        C  0.38028232  0.10756574  0.03735171     0.05200
C146        C  0.34643097  0.11915251  0.05486163     0.03300
H147        H  0.45482860  0.12367431  0.03834245     0.08400
H148        H  0.30946730  0.11467489  0.05291795     0.07200
N149        N  0.20141272  0.23002315  0.78338660    -0.27200
N150        N  0.22351683  0.25606148  0.76760095    -0.35000
C151        C  0.19295465  0.27527408  0.75213400     0.01200
C152        C  0.14940208  0.26056477  0.75808134     0.07200
C153        C  0.15569887  0.23200177  0.77810587    -0.05900
H154        H  0.20230722  0.29591710  0.73634098     0.07900
H155        H  0.12959880  0.21214367  0.78701151     0.09100
Cu156      Cu  0.29396590  0.25988629  0.76258553     0.44200
Cu157      Cu  0.23554393  0.19026748  0.80939820     0.42000
Cu158      Cu  0.36068526  0.18776710  0.79757722     0.43900
N159        N  0.36369682  0.25237732  0.75587508    -0.34500
N160        N  0.38897634  0.22500477  0.76923505    -0.28800
C161        C  0.43266076  0.22530198  0.76046622    -0.04900
C162        C  0.43465685  0.25408518  0.74040524     0.07300
C163        C  0.39031626  0.27062951  0.73789858     0.01100
H164        H  0.46039701  0.20499196  0.76757546     0.08800
H165        H  0.37805088  0.29332168  0.72372660     0.07800
N166        N  0.32843722  0.15806674  0.82773197    -0.36000
N167        N  0.28349488  0.15874901  0.83263190    -0.28200
C168        C  0.27632157  0.13995875  0.85548592    -0.03400
C169        C  0.31890105  0.12727323  0.86525047     0.05200
C170        C  0.35090401  0.13913037  0.84708498     0.03300
H171        H  0.24302444  0.13796208  0.86487525     0.08400
H172        H  0.38818938  0.13633984  0.84832967     0.07200
N173        N  0.10344581  0.42297552  0.15272219    -0.27200
N174        N  0.12528675  0.44282346  0.17168147    -0.35000
C175        C  0.14223709  0.41286598  0.18767489     0.01200
C176        C  0.13023854  0.37236266  0.17838602     0.07200
C177        C  0.10567821  0.37986952  0.15619339    -0.05900
H178        H  0.16082988  0.42010888  0.20516233     0.07900
H179        H  0.09001638  0.35595817  0.14369930     0.09100
Cu180      Cu  0.12832388  0.50963087  0.17625775     0.44200
Cu181      Cu  0.07034598  0.45537620  0.12362443     0.42000
Cu182      Cu  0.06650883  0.57230453  0.12882373     0.43900
N183        N  0.12138117  0.57657392  0.17811888    -0.34500
N184        N  0.09818783  0.59933115  0.16097919    -0.28800
C185        C  0.09913042  0.64143476  0.16784179    -0.04900
C186        C  0.12413580  0.64539027  0.19033080     0.07300
C187        C  0.13781673  0.60363566  0.19629053     0.01100
H188        H  0.08306066  0.66731553  0.15712791     0.08800
H189        H  0.15812331  0.59361934  0.21262798     0.07800
N190        N  0.03873146  0.53745295  0.09820386    -0.36000
N191        N  0.04012579  0.49469966  0.09661624    -0.28200
C192        C  0.02095080  0.48184181  0.07443169    -0.03400
C193        C  0.00686036  0.51822325  0.06126848     0.05200
C194        C  0.01860978  0.55297456  0.07689160     0.03300
H195        H  0.01878239  0.44846143  0.06808096     0.08400
H196        H  0.01395295  0.58702887  0.07285187     0.07200
N197        N  0.98657908  0.61660144  0.78093604    -0.27200
N198        N  0.00587110  0.59466596  0.76184380    -0.35000
C199        C  0.02108972  0.62261169  0.74422207     0.01200
C200        C  0.01064775  0.66414048  0.75252471     0.07200
C201        C  0.98871143  0.65923613  0.77585478    -0.05900
H202        H  0.03872411  0.61333236  0.72672725     0.07900
H203        H  0.97643257  0.68472721  0.78852446     0.09100
Cu204      Cu  0.01016252  0.52781529  0.76010541     0.44200
Cu205      Cu  0.96195779  0.58716854  0.81373227     0.42000
Cu206      Cu  0.96345828  0.46855822  0.81275953     0.43900
N207        N  0.00391444  0.46111976  0.75990362    -0.34500
N208        N  0.98527935  0.43909349  0.77883702    -0.28800
C209        C  0.98553083  0.39666002  0.77254625    -0.04900
C210        C  0.00556520  0.39197162  0.74857583     0.07300
C211        C  0.01684813  0.43346496  0.74118833     0.01100
H212        H  0.97332422  0.37107265  0.78480676     0.08800
H213        H  0.03356148  0.44289249  0.72357936     0.07800
N214        N  0.95020731  0.50625572  0.84518847    -0.36000
N215        N  0.94946213  0.54912708  0.84550439    -0.28200
C216        C  0.94444406  0.56314366  0.86980242    -0.03400
C217        C  0.94204063  0.52743533  0.88555666     0.05200
C218        C  0.94562703  0.49194534  0.86929083     0.03300
H219        H  0.94493869  0.59685229  0.87564085     0.08400
H220        H  0.94725751  0.45820055  0.87463674     0.07200
N221        N  0.99087927  0.31056794  0.28544883    -0.27200
N222        N  0.96849458  0.28874201  0.26749812    -0.35000
C223        C  0.99882993  0.27166135  0.25089872     0.01200
C224        C  0.04271771  0.28305649  0.25860936     0.07200
C225        C  0.03673038  0.30784541  0.28062141    -0.05900
H226        H  0.98936546  0.25337099  0.23394031     0.07900
H227        H  0.06336452  0.32372029  0.29177293     0.09100
Cu228      Cu  0.89812757  0.28428509  0.26420512     0.44200
Cu229      Cu  0.95583012  0.34482305  0.31394081     0.42000
Cu230      Cu  0.82764141  0.34413317  0.30594792     0.43900
N231        N  0.82758892  0.28420060  0.26112000    -0.34500
N232        N  0.80053309  0.30658999  0.27674590    -0.28800
C233        C  0.75644703  0.30274157  0.26882898    -0.04900
C234        C  0.75629853  0.27677624  0.24708765     0.07300
C235        C  0.80190323  0.26554743  0.24276146     0.01100
H236        H  0.72715386  0.31928478  0.27746722     0.08800
H237        H  0.81571034  0.24699746  0.22680668     0.07800
N238        N  0.86346074  0.37885672  0.33346613    -0.36000
N239        N  0.90887021  0.37842151  0.33700124    -0.28200
C240        C  0.91874845  0.40187913  0.35812566    -0.03400
C241        C  0.87766296  0.41790543  0.36816407     0.05200
C242        C  0.84348275  0.40280302  0.35198075     0.03300
H243        H  0.95310249  0.40546501  0.36609552     0.08400
H244        H  0.80645569  0.40666504  0.35426501     0.07200
N245        N  0.70251891  0.31546538  0.61600502    -0.27200
N246        N  0.72593663  0.28767394  0.63022732    -0.35000
C247        C  0.69735962  0.26959035  0.64719271     0.01200
C248        C  0.65378957  0.28669824  0.64361579     0.07200
C249        C  0.65794314  0.31544765  0.62356992    -0.05900
H250        H  0.70836741  0.24814162  0.66232085     0.07900
H251        H  0.63146699  0.33709021  0.61637426     0.09100
Cu252      Cu  0.79654274  0.28209279  0.63181769     0.44200
Cu253      Cu  0.73385832  0.35750237  0.59046218     0.42000
Cu254      Cu  0.85652662  0.36946951  0.60582110     0.43900
N255        N  0.86398030  0.29462598  0.64129185    -0.34500
N256        N  0.88662480  0.32769829  0.63166059    -0.28800
C257        C  0.92854175  0.32998809  0.64269191    -0.04900
C258        C  0.93175922  0.29717734  0.66047400     0.07300
C259        C  0.89025018  0.27537027  0.65914952     0.01100
H260        H  0.95386154  0.35483632  0.63890639     0.08800
H261        H  0.87936900  0.24843880  0.67077199     0.07800
N262        N  0.82314882  0.40131548  0.57653060    -0.36000
N263        N  0.77917937  0.39642086  0.57008464    -0.28200
C264        C  0.77191748  0.41583699  0.54741999    -0.03400
C265        C  0.81347275  0.43334395  0.53930684     0.05200
C266        C  0.84487040  0.42381915  0.55836325     0.03300
H267        H  0.73996852  0.41392599  0.53666194     0.08400
H268        H  0.88181712  0.42935329  0.55804518     0.07200
N269        N  0.21201077  0.92501275  0.29097852    -0.27200
N270        N  0.19359692  0.94473660  0.27102381    -0.35000
C271        C  0.17866794  0.91491248  0.25414588     0.01200
C272        C  0.18822715  0.87432619  0.26378278     0.07200
C273        C  0.20950863  0.88180060  0.28717068    -0.05900
H274        H  0.16201273  0.92230651  0.23614242     0.07900
H275        H  0.22151340  0.85772260  0.30058879     0.09100
Cu276      Cu  0.18909967  0.01115285  0.26714288     0.44200
Cu277      Cu  0.23748152  0.95877700  0.32265864     0.42000
Cu278      Cu  0.23120917  0.07680054  0.31970268     0.43900
N279        N  0.19003441  0.07800562  0.26642938    -0.34500
N280        N  0.20636038  0.10213847  0.28538436    -0.28800
C281        C  0.20343999  0.14403712  0.27865976    -0.04900
C282        C  0.18403903  0.14624621  0.25445570     0.07300
C283        C  0.17587595  0.10380423  0.24728901     0.01100
H284        H  0.21428012  0.17094663  0.29059851     0.08800
H285        H  0.16126759  0.09242206  0.22940233     0.07800
N286        N  0.25363726  0.04279129  0.35183581    -0.36000
N287        N  0.25639222  0.00001097  0.35265125    -0.28200
C288        C  0.27036797  0.98812802  0.37614572    -0.03400
C289        C  0.27662122  0.02504019  0.39096611     0.05200
C290        C  0.26568093  0.05914178  0.37489588     0.03300
H291        H  0.27399971  0.95487603  0.38221372     0.08400
H292        H  0.26509036  0.09326456  0.37980534     0.07200
N293        N  0.11558105  0.11452518  0.65276246    -0.27200
N294        N  0.09095815  0.09360901  0.66998421    -0.35000
C295        C  0.06773520  0.12260299  0.68453617     0.01200
C296        C  0.07827969  0.16378141  0.67611707     0.07200
C297        C  0.10881631  0.15746622  0.65597664    -0.05900
H298        H  0.04559161  0.11432831  0.70044419     0.07900
H299        H  0.12538020  0.18221543  0.64471844     0.09100
Cu300      Cu  0.09156419  0.02659037  0.67345436     0.44200
Cu301      Cu  0.15746449  0.08302579  0.62601097     0.42000
Cu302      Cu  0.16460575  0.96529856  0.62891440     0.43900
N303        N  0.09809819  0.95950431  0.67365390    -0.34500
N304        N  0.12470626  0.93709132  0.65764671    -0.28800
C305        C  0.12046147  0.89459623  0.66282414    -0.04900
C306        C  0.08968582  0.89012986  0.68296563     0.07300
C307        C  0.07632063  0.93193518  0.68936658     0.01100
H308        H  0.13823400  0.86883530  0.65256760     0.08800
H309        H  0.05232945  0.94165161  0.70428142     0.07800
N310        N  0.19802046  0.00220948  0.60114932    -0.36000
N311        N  0.19520468  0.04497583  0.60032226    -0.28200
C312        C  0.21811213  0.05902543  0.57961013    -0.03400
C313        C  0.23629616  0.02356817  0.56660945     0.05200
C314        C  0.22289434  0.98801492  0.58085556     0.03300
H315        H  0.21979453  0.09259996  0.57395914     0.08400
H316        H  0.22923071  0.95423773  0.57630657     0.07200
O317        O  0.00950290  0.30543107  0.67307794    -0.72800
O318        O  0.11337075  0.28907431  0.72165168    -0.73800
O319        O  0.07934952  0.24097374  0.67963886    -0.62400
O320        O  0.04364011  0.35237897  0.71547968    -0.70800
O321        O  0.99866816  0.31580105  0.74203258    -0.70400
O322        O  0.03386019  0.20471546  0.70606826    -0.61600
O323        O  0.06912545  0.25188129  0.74830431    -0.74100
O324        O  0.96334686  0.26848603  0.69886710    -0.72900
Cu325      Cu  0.06294650  0.29821755  0.69655347     1.04600
Cu326      Cu  0.01439185  0.25897770  0.72470638     1.04300
C327        C  0.96994788  0.28975486  0.67828981     0.93400
C328        C  0.10835778  0.26774136  0.74224375     0.92500
C329        C  0.06289006  0.20515902  0.68763201     0.84700
C330        C  0.01617404  0.35150305  0.73464480     0.90900
O331        O  0.19264311  0.22119831  0.24711465    -0.72800
O332        O  0.16637053  0.33072820  0.21021237    -0.73800
O333        O  0.12436190  0.28749626  0.25131073    -0.62400
O334        O  0.23341431  0.26450533  0.20453590    -0.70800
O335        O  0.18742481  0.22799487  0.17804675    -0.70400
O336        O  0.08069846  0.25143288  0.22345013    -0.61600
O337        O  0.12169983  0.29575657  0.18235457    -0.74100
O338        O  0.14803707  0.18438481  0.22009176    -0.72900
Cu339      Cu  0.18094787  0.27708525  0.22925908     1.04600
Cu340      Cu  0.13289503  0.23854505  0.20007464     1.04300
C341        C  0.17444939  0.18566499  0.23976168     0.93400
C342        C  0.13990647  0.33086089  0.19071504     0.92500
C343        C  0.08486776  0.27344980  0.24405947     0.84700
C344        C  0.22701484  0.24319023  0.18370758     0.90900
O345        O  0.68850830  0.29264651  0.16664510    -0.72800
O346        O  0.65440873  0.18267571  0.20279198    -0.73800
O347        O  0.61885132  0.22891451  0.16004104    -0.62400
O348        O  0.72384350  0.24675794  0.20930076    -0.70800
O349        O  0.67745164  0.28336910  0.23576919    -0.70400
O350        O  0.57400977  0.26726671  0.18645016    -0.61600
O351        O  0.60826552  0.22001931  0.22897926    -0.74100
O352        O  0.64377542  0.32986244  0.19365029    -0.72900
Cu353      Cu  0.67305508  0.23631373  0.18377903     1.04600
Cu354      Cu  0.62415146  0.27631221  0.21207052     1.04300
C355        C  0.67181849  0.32866155  0.17475024     0.93400
C356        C  0.62626504  0.18408146  0.22166829     0.92500
C357        C  0.57978467  0.24614687  0.16556660     0.84700
C358        C  0.71728714  0.26820197  0.23004330     0.90900
N359        N  0.71162072  0.41780408  0.13530151    -0.27200
N360        N  0.69397548  0.43916140  0.15508880    -0.35000
C361        C  0.67735360  0.41069810  0.17201372     0.01200
C362        C  0.68510271  0.36938895  0.16252660     0.07200
C363        C  0.70708049  0.37496609  0.13925298    -0.05900
H364        H  0.66083202  0.41948826  0.18991990     0.07900
H365        H  0.71790046  0.34988018  0.12591401     0.09100
Cu366      Cu  0.69307961  0.50592863  0.15843347     0.44200
Cu367      Cu  0.73704974  0.44873030  0.10314120     0.42000
Cu368      Cu  0.73734056  0.56705216  0.10536361     0.43900
N369        N  0.69857425  0.57265180  0.15884408    -0.34500
N370        N  0.71604917  0.59517441  0.13976681    -0.28800
C371        C  0.71433920  0.63756491  0.14598612    -0.04900
C372        C  0.69452555  0.64173820  0.17002043     0.07300
C373        C  0.68491303  0.59998714  0.17757923     0.01100
H374        H  0.72506448  0.66347895  0.13353988     0.08800
H375        H  0.66845929  0.59018393  0.19518876     0.07800
N376        N  0.74982543  0.53044204  0.07241494    -0.36000
N377        N  0.75017119  0.48757918  0.07175072    -0.28200
C378        C  0.75506160  0.47408556  0.04735298    -0.03400
C379        C  0.75769181  0.51009563  0.03185496     0.05200
C380        C  0.75441190  0.54527629  0.04840391     0.03300
H381        H  0.75422618  0.44051284  0.04126486     0.08400
H382        H  0.75317738  0.57915667  0.04331804     0.07200
N383        N  0.60397457  0.61001551  0.76114920    -0.27200
N384        N  0.58394908  0.58900299  0.74201056    -0.35000
C385        C  0.56632460  0.61791802  0.72554318     0.01200
C386        C  0.57600297  0.65907845  0.73465394     0.07200
C387        C  0.59990169  0.65294958  0.75727755    -0.05900
H388        H  0.54856944  0.60955157  0.70796114     0.07900
H389        H  0.61353825  0.67774530  0.76990528     0.09100
Cu390      Cu  0.58335459  0.52204939  0.73834011     0.44200
Cu391      Cu  0.63644517  0.57886604  0.79121893     0.42000
Cu392      Cu  0.64540869  0.46139800  0.78659268     0.43900
N393        N  0.58901723  0.45503517  0.73805817    -0.34500
N394        N  0.61234767  0.43285272  0.75539949    -0.28800
C395        C  0.60882576  0.39029278  0.74994612    -0.04900
C396        C  0.58176480  0.38554139  0.72824621     0.07300
C397        C  0.56990405  0.42722033  0.72118913     0.01100
H398        H  0.62415356  0.36469690  0.76120913     0.08800
H399        H  0.54869444  0.43667085  0.70508376     0.07800
N400        N  0.66996028  0.49763404  0.81744408    -0.36000
N401        N  0.66637335  0.54031307  0.81901622    -0.28200
C402        C  0.68312970  0.55373058  0.84170657    -0.03400
C403        C  0.69790545  0.51784162  0.85516944     0.05200
C404        C  0.68909789  0.48278851  0.83920192     0.03300
H405        H  0.68324263  0.58712058  0.84816794     0.08400
H406        H  0.69492679  0.44890946  0.84331587     0.07200
N407        N  0.58644998  0.09758176  0.26317627    -0.27200
N408        N  0.60967646  0.07491248  0.24578503    -0.35000
C409        C  0.62757779  0.10216219  0.22848935     0.01200
C410        C  0.61476598  0.14396988  0.23521744     0.07200
C411        C  0.58878153  0.13991063  0.25732360    -0.05900
H412        H  0.64781442  0.09217816  0.21201658     0.07900
H413        H  0.57256068  0.16575590  0.26827323     0.09100
Cu414      Cu  0.61371469  0.00778017  0.24549388     0.44200
Cu415      Cu  0.55155365  0.06939452  0.29353640     0.42000
Cu416      Cu  0.54564503  0.95154538  0.29277385     0.43900
N417        N  0.60882937  0.94082331  0.24732127    -0.34500
N418        N  0.58339782  0.92019008  0.26431356    -0.28800
C419        C  0.58722970  0.87722281  0.26008537    -0.04900
C420        C  0.61655501  0.87059946  0.23948161     0.07300
C421        C  0.62956546  0.91157667  0.23185995     0.01100
H422        H  0.57009075  0.85269408  0.27124781     0.08800
H423        H  0.65231698  0.91959563  0.21616654     0.07800
N424        N  0.51491166  0.99040399  0.32062089    -0.36000
N425        N  0.51758718  0.03317026  0.32108337    -0.28200
C426        C  0.49607243  0.04826181  0.34220236    -0.03400
C427        C  0.47900968  0.01335926  0.35566533     0.05200
C428        C  0.49157508  0.97719392  0.34140586     0.03300
H429        H  0.49397303  0.08212850  0.34760408     0.08400
H430        H  0.48543130  0.94365009  0.34608971     0.07200
N431        N  0.48173989  0.10804814  0.63012982    -0.27200
N432        N  0.49979585  0.08732793  0.64980480    -0.35000
C433        C  0.51681965  0.11632093  0.66659415     0.01200
C434        C  0.50889443  0.15732764  0.65709699     0.07200
C435        C  0.48651567  0.15099789  0.63395673    -0.05900
H436        H  0.53349468  0.10811125  0.68446530     0.07900
H437        H  0.47503073  0.17565994  0.62077233     0.09100
Cu438      Cu  0.50038514  0.02070215  0.65295996     0.44200
Cu439      Cu  0.45306228  0.07594293  0.59894974     0.42000
Cu440      Cu  0.44782110  0.95805259  0.60154981     0.43900
N441        N  0.49765682  0.95388466  0.65226469    -0.34500
N442        N  0.47763957  0.93093026  0.63390136    -0.28800
C443        C  0.48241795  0.88858406  0.63921694    -0.04900
C444        C  0.50689072  0.88491515  0.66186256     0.07300
C445        C  0.51594626  0.92686786  0.66963054     0.01100
H446        H  0.46975631  0.86243471  0.62724530     0.08800
H447        H  0.53451444  0.93708211  0.68660751     0.07800
N448        N  0.42875078  0.99391524  0.56973374    -0.36000
N449        N  0.43079885  0.03668537  0.56900172    -0.28200
C450        C  0.42124489  0.04982882  0.54514497    -0.03400
C451        C  0.41305552  0.01372528  0.52999177     0.05200
C452        C  0.41786345  0.97876837  0.54624379     0.03300
H453        H  0.42307117  0.08314714  0.53902205     0.08400
H454        H  0.41653169  0.94478571  0.54106444     0.07200
O455        O  0.61982065  0.26009484  0.68144619    -0.72800
O456        O  0.51391897  0.24635148  0.72976907    -0.73800
O457        O  0.54946319  0.19794695  0.68838418    -0.62400
O458        O  0.58477129  0.30894458  0.72340814    -0.70800
O459        O  0.53962488  0.34573563  0.69681356    -0.70400
O460        O  0.50509985  0.23422669  0.66113646    -0.61600
O461        O  0.46870451  0.28283086  0.70301436    -0.74100
O462        O  0.57506644  0.29745261  0.65487805    -0.72900
Cu463      Cu  0.56861497  0.25212828  0.70668452     1.04600
Cu464      Cu  0.52047801  0.29138739  0.67804777     1.04300
C465        C  0.61423912  0.28096195  0.66065490     0.93400
C466        C  0.47434732  0.26178356  0.72371859     0.92500
C467        C  0.52176648  0.19849272  0.66935071     0.84700
C468        C  0.56802639  0.34485071  0.71557917     0.90900
O469        O  0.62524435  0.77817398  0.16829155    -0.72800
O470        O  0.73210203  0.76861773  0.21749730    -0.73800
O471        O  0.69819676  0.71800803  0.17549640    -0.62400
O472        O  0.65957648  0.82938469  0.20923975    -0.70800
O473        O  0.61493866  0.79342314  0.23626446    -0.70400
O474        O  0.65499175  0.68109520  0.20279005    -0.61600
O475        O  0.68673239  0.73226676  0.24401494    -0.74100
O476        O  0.58255366  0.74069326  0.19560275    -0.72900
Cu477      Cu  0.68049268  0.77485882  0.19168549     1.04600
Cu478      Cu  0.63333235  0.73566271  0.22061466     1.04300
C479        C  0.58696519  0.76051533  0.17449272     0.93400
C480        C  0.72579823  0.74864010  0.23855371     0.92500
C481        C  0.68226355  0.68211493  0.18352715     0.84700
C482        C  0.63098841  0.82913804  0.22785644     0.90900
O483        O  0.58123713  0.73585211  0.73029351    -0.72800
O484        O  0.54805787  0.84645127  0.69395156    -0.73800
O485        O  0.51236910  0.80095527  0.73567807    -0.62400
O486        O  0.61818731  0.78284332  0.68866014    -0.70800
O487        O  0.57487315  0.74533447  0.66130366    -0.70400
O488        O  0.46695842  0.76347140  0.70934543    -0.61600
O489        O  0.50387102  0.80889093  0.66705151    -0.74100
O490        O  0.53698406  0.69934664  0.70293987    -0.72900
Cu491      Cu  0.56659432  0.79274873  0.71305219     1.04600
Cu492      Cu  0.51902476  0.75293440  0.68421424     1.04300
C493        C  0.56419449  0.70011097  0.72216523     0.93400
C494        C  0.52034948  0.84490756  0.67488244     0.92500
C495        C  0.47292320  0.78546371  0.72994990     0.84700
C496        C  0.61380547  0.76162607  0.66776361     0.90900
C497        C  0.42996597  0.99285229  0.41723239     0.20500
C498        C  0.41916866  0.96760441  0.43865676    -0.39400
C499        C  0.41249125  0.99056021  0.46170240     0.19400
C500        C  0.41552493  0.03525773  0.46309273     0.22100
C501        C  0.42582701  0.06043943  0.44168789    -0.39900
C502        C  0.43318950  0.03752001  0.41881015     0.20900
N503        N  0.44363242  0.97862303  0.39402339    -0.33200
C504        C  0.45617850  0.01445385  0.38091397    -0.10700
C505        C  0.44952299  0.05181834  0.39566580    -0.29600
N506        N  0.41292273  0.04906954  0.48744124    -0.46100
C507        C  0.40903289  0.01301711  0.50186019    -0.11000
C508        C  0.40790971  0.97582294  0.48644486    -0.22800
H509        H  0.41877320  0.93256031  0.43777332     0.19000
H510        H  0.43051828  0.09514903  0.44308893     0.17800
H511        H  0.45843500  0.08473305  0.39078677     0.14100
H512        H  0.40726985  0.94244047  0.49257873     0.14000
H513        H  0.44675011  0.94633347  0.38804249     0.32100
H514        H  0.41675720  0.08099517  0.49387414     0.34900
C515        C  0.74967791  0.53438248  0.96520261     0.20500
C516        C  0.74110837  0.56053522  0.94388890    -0.39400
C517        C  0.73405156  0.53844481  0.92066905     0.19400
C518        C  0.73560663  0.49370393  0.91874871     0.22100
C519        C  0.74440630  0.46751750  0.94006337    -0.39900
C520        C  0.75125552  0.48963157  0.96334221     0.20900
N521        N  0.75376724  0.54743492  0.98969952    -0.33200
C522        C  0.75757528  0.51070827  0.00361827    -0.10700
C523        C  0.75660914  0.47400953  0.98779957    -0.29600
N524        N  0.72452155  0.48056077  0.89491994    -0.46100
C525        C  0.71550988  0.51725972  0.88166212    -0.05400
C526        C  0.72148275  0.55397938  0.89705014    -0.22800
H527        H  0.73844294  0.59545192  0.94544732     0.19000
H528        H  0.74424814  0.43249795  0.93879845     0.17800
H529        H  0.75735494  0.44039632  0.99350449     0.14100
H530        H  0.71549951  0.58746611  0.89198868     0.14000
H531        H  0.75198460  0.57920104  0.99654558     0.32100
H532        H  0.72154222  0.44867946  0.88842996     0.34900
C533        C  0.27907812  0.04710942  0.50400610     0.20500
C534        C  0.28230439  0.07264173  0.48195341    -0.39400
C535        C  0.28883737  0.05000878  0.45880690     0.19400
C536        C  0.29268280  0.00532081  0.45778791     0.22100
C537        C  0.29021787  0.97983641  0.47989136    -0.39900
C538        C  0.28289292  0.00241211  0.50299099     0.20900
N539        N  0.26531016  0.06031252  0.52738456    -0.33200
C540        C  0.25939576  0.02385396  0.54130507    -0.10700
C541        C  0.27105144  0.98709006  0.52685965    -0.29600
N542        N  0.29217425  0.99115677  0.43339290    -0.46100
C543        C  0.28699350  0.02689176  0.41870524    -0.05400
C544        C  0.28571428  0.06433925  0.43390001    -0.22800
H545        H  0.27655536  0.10732070  0.48254267     0.19000
H546        H  0.29058698  0.94479475  0.47892757     0.17800
H547        H  0.26719625  0.95355063  0.53228368     0.14100
H548        H  0.27921363  0.09719930  0.42774464     0.14000
H549        H  0.25690431  0.09204409  0.53282740     0.32100
H550        H  0.29189798  0.95885484  0.42729216     0.34900
C551        C  0.88041123  0.45153277  0.43331171     0.20500
C552        C  0.89804747  0.45012690  0.45825738    -0.39400
C553        C  0.86528970  0.45441733  0.47789263     0.19400
C554        C  0.81841777  0.45953145  0.47312417     0.22100
C555        C  0.80086437  0.46166479  0.44817335    -0.39900
C556        C  0.83363549  0.45744738  0.42852055     0.20900
N557        N  0.90305952  0.44071982  0.41171885    -0.33200
C558        C  0.87030771  0.43897207  0.39318119    -0.10700
C559        C  0.82685988  0.45044151  0.40281451    -0.29600
N560        N  0.79384099  0.45595051  0.49483438    -0.46100
C561        C  0.82534643  0.44815864  0.51346762    -0.05400
C562        C  0.87028458  0.44784359  0.50367908    -0.22800
H563        H  0.93411369  0.44297435  0.46210560     0.19000
H564        H  0.76406666  0.46335619  0.44433511     0.17800
H565        H  0.79389697  0.44898994  0.39300668     0.14100
H566        H  0.90196867  0.43942658  0.51356165     0.14000
H567        H  0.93762471  0.43085318  0.41027795     0.32100
H568        H  0.75780583  0.45561383  0.49651058     0.34900
C569        C  0.94904045  0.50345609  0.95222877     0.20500
C570        C  0.95629791  0.47704881  0.97357789    -0.39400
C571        C  0.96557038  0.49889494  0.99662791     0.19400
C572        C  0.96724683  0.54364199  0.99833502     0.22100
C573        C  0.95973007  0.57006786  0.97699970    -0.39900
C574        C  0.95066644  0.54820706  0.95390202     0.20900
N575        N  0.94368742  0.49049228  0.92782019    -0.33200
C576        C  0.94226026  0.52718311  0.91377225    -0.10700
C577        C  0.94600815  0.56388932  0.92942306    -0.29600
N578        N  0.98031196  0.55632660  0.02189979    -0.46100
C579        C  0.98743281  0.51940100  0.03521387    -0.05400
C580        C  0.97813266  0.48291950  0.02014580    -0.22800
H581        H  0.95657672  0.44204019  0.97213069     0.19000
H582        H  0.96256782  0.60498895  0.97809351     0.17800
H583        H  0.94771969  0.59738694  0.92357771     0.14100
H584        H  0.98221233  0.44922247  0.02527489     0.14000
H585        H  0.94315766  0.45851633  0.92107008     0.32100
H586        H  0.98606240  0.58812702  0.02814548     0.34900
C587        C  0.32177371  0.09133076  0.93004397     0.20500
C588        C  0.30374475  0.08316778  0.95445068    -0.39400
C589        C  0.33620637  0.08212393  0.97443514     0.19400
C590        C  0.38309036  0.08834955  0.97034298     0.22100
C591        C  0.40112280  0.09584533  0.94593171    -0.39900
C592        C  0.36871290  0.09716690  0.92605635     0.20900
N593        N  0.29776285  0.09956172  0.90854945    -0.33200
C594        C  0.32980567  0.11077525  0.89088382    -0.10700
C595        C  0.37440128  0.10918727  0.90106041    -0.29600
N596        N  0.40554217  0.09346600  0.99262363    -0.46100
C597        C  0.37267041  0.09165792  0.01106199    -0.05400
C598        C  0.32918359  0.08330966  0.00048628    -0.22800
H599        H  0.26687468  0.08098704  0.95790593     0.19000
H600        H  0.43731004  0.10322846  0.94290735     0.17800
H601        H  0.40646046  0.11850888  0.89196936     0.14100
H602        H  0.29611732  0.08343230  0.01022940     0.14000
H603        H  0.26180449  0.09964907  0.90642504     0.32100
H604        H  0.44016386  0.10233708  0.99485598     0.34900
C605        C  0.88419615  0.57073237  0.44330713     0.20500
C606        C  0.90362589  0.57328168  0.46784500    -0.39400
C607        C  0.87205402  0.57428026  0.48820037     0.19400
C608        C  0.82462934  0.57238095  0.48444872     0.22100
C609        C  0.80525441  0.56901643  0.45993015    -0.39900
C610        C  0.83679751  0.56850121  0.43955587     0.20900
N611        N  0.90604345  0.57816592  0.42111030    -0.33200
C612        C  0.87229142  0.58163006  0.40320962    -0.10700
C613        C  0.82876597  0.57445674  0.41388941    -0.29600
N614        N  0.80192311  0.58204143  0.50621279    -0.46100
C615        C  0.83507662  0.59113418  0.52377083    -0.05400
C616        C  0.87924125  0.58549091  0.51339572    -0.22800
H617        H  0.94033917  0.57825077  0.47075748     0.19000
H618        H  0.76821919  0.57056749  0.45683775     0.17800
H619        H  0.79536051  0.57849786  0.40481072     0.14100
H620        H  0.91206913  0.59353644  0.52216801     0.14000
H621        H  0.94115901  0.58507929  0.41888432     0.32100
H622        H  0.76622265  0.58642031  0.50822388     0.34900
C623        C  0.33906383  0.93025590  0.99447894     0.20500
C624        C  0.30503387  0.92824745  0.97540500    -0.39400
C625        C  0.32144221  0.92593249  0.95022907     0.19400
C626        C  0.36822451  0.92596828  0.94444905     0.22100
C627        C  0.40232512  0.92811160  0.96353659    -0.39900
C628        C  0.38589007  0.93008212  0.98876511     0.20900
N629        N  0.33235736  0.92665883  0.01975064    -0.33200
C630        C  0.37512800  0.92324582  0.03021768    -0.10700
C631        C  0.40947627  0.92611847  0.01153025    -0.29600
N632        N  0.37484993  0.91939058  0.91928136    -0.46100
C633        C  0.33199377  0.91468574  0.90904360    -0.05400
C634        C  0.29779488  0.91893159  0.92773422    -0.22800
H635        H  0.26852971  0.92615748  0.97991150     0.19000
H636        H  0.43890194  0.92592552  0.95913722     0.17800
H637        H  0.44642749  0.92172270  0.01392987     0.14100
H638        H  0.26080201  0.91503573  0.92544262     0.14000
H639        H  0.30052536  0.92302043  0.02894208     0.32100
H640        H  0.40665632  0.91606910  0.90993984     0.34900
loop_ 
_geom_bond_atom_site_label_1 
_geom_bond_atom_site_label_2 
_geom_bond_distance 
_geom_bond_site_symmetry_2 
_ccdc_geom_bond_type 
O1           Cu9   2.017       .  S
O1           C11   1.279       .  A
O2           Cu9   2.014       .  S
O2           C12   1.277       .  A
O3           Cu9   2.020       .  S
O3           C13   1.279       .  A
O4           Cu9   2.026       .  S
O4           C14   1.279       .  A
O5          Cu10   1.999       .  S
O5           C14   1.277       .  A
O6          Cu10   2.009       .  S
O6           C13   1.277       .  A
O7          Cu10   1.988       .  S
O7           C12   1.276       .  A
O8          Cu10   1.984       .  S
O8           C11   1.274       .  A
Cu9         Cu10   2.377       .  S
C11          C28   1.462       .  S
C12          C66   1.462       .  S
C13         C186   1.473       .  S
C14         C272   1.470       .  S
N15          N16   1.322       .  A
N15          C19   1.344       .  A
N15         Cu23   2.057       .  S
N16          C17   1.338       .  A
N16         Cu22   2.057       .  S
C17          C18   1.379       .  A
C17          H20   1.082       .  S
C18         C479   1.456       .  S
C18          C19   1.379       .  A
C19          H21   1.082       .  S
Cu22         N25   2.057       .  S
Cu23         N33   2.057       .  S
Cu24         N26   2.067       .  S
Cu24         N32   2.067       .  S
N25          N26   1.321       .  A
N25          C29   1.345       .  A
N26          C27   1.341       .  A
C27          C28   1.381       .  A
C27          H30   1.082       .  S
C28          C29   1.381       .  A
C29          H31   1.082       .  S
N32          N33   1.321       .  A
N32          C36   1.342       .  A
N33          C34   1.343       .  A
C34          C35   1.383       .  A
C34          H37   1.082       .  S
C35         C630   1.470       .  S
C35          C36   1.383       .  A
C36          H38   1.081       .  S
N39          N40   1.321       .  A
N39          C43   1.348       .  A
N39         Cu47   2.078       .  S
N40          C41   1.338       .  A
N40         Cu46   2.044       .  S
C41          C42   1.376       .  A
C41          H44   1.082       .  S
C42         C123   1.463       .  S
C42          C43   1.385       .  A
C43          H45   1.082       .  S
Cu46         N49   2.046       .  S
Cu47         N57   2.079       .  S
Cu48         N50   2.067       .  S
Cu48         N56   2.067       .  S
N49          N50   1.320       .  A
N49          C53   1.343       .  A
N50          C51   1.342       .  A
C51          C52   1.383       .  A
C51          H54   1.082       .  S
C52         C495   1.459       .  S
C52          C53   1.377       .  A
C53          H55   1.082       .  S
N56          N57   1.323       .  A
N56          C60   1.344       .  A
N57          C58   1.345       .  A
C58          C59   1.384       .  A
C58          H61   1.082       .  S
C59         C633   1.471       .  S
C59          C60   1.381       .  A
C60          H62   1.082       .  S
N63          N64   1.322       .  A
N63          C67   1.347   1_655  A
N63         Cu71   2.076       .  S
N64          C65   1.338   1_655  A
N64         Cu70   2.048       .  S
C65          C66   1.377       .  A
C65          H68   1.082   1_455  S
C66          C67   1.384       .  A
C67          H69   1.082       .  S
Cu70         N73   2.048       .  S
Cu71         N81   2.077       .  S
Cu72         N74   2.064       .  S
Cu72         N80   2.065       .  S
N73          N74   1.320       .  A
N73          C77   1.344       .  A
N74          C75   1.340       .  A
C75          C76   1.381       .  A
C75          H78   1.082       .  S
C76         C480   1.458       .  S
C76          C77   1.378       .  A
C77          H79   1.082       .  S
N80          N81   1.322       .  A
N80          C84   1.343       .  A
N81          C82   1.345       .  A
C82          C83   1.385       .  A
C82          H85   1.081       .  S
C83         C612   1.472       .  S
C83          C84   1.383       .  A
C84          H86   1.082       .  S
N87          N88   1.324       .  A
N87          C91   1.349       .  A
N87         Cu95   2.080       .  S
N88          C89   1.337       .  A
N88         Cu94   2.058       .  S
C89          C90   1.377       .  A
C89          H92   1.082       .  S
C90         C496   1.463       .  S
C90          C91   1.384       .  A
C91          H93   1.082       .  S
Cu94         N97   2.059       .  S
Cu95        N105   2.081       .  S
Cu96         N98   2.063       .  S
Cu96        N104   2.063       .  S
N97          N98   1.319       .  A
N97         C101   1.346       .  A
N98          C99   1.342       .  A
C99         C100   1.382       .  A
C99         H102   1.082       .  S
C100        C124   1.465       .  S
C100        C101   1.383       .  A
C101        H103   1.082       .  S
N104        N105   1.322       .  A
N104        C108   1.341       .  A
N105        C106   1.347       .  A
C106        C107   1.386       .  A
C106        H109   1.082       .  S
C107        C615   1.472       .  S
C107        C108   1.381       .  A
C108        H110   1.082       .  S
O111       Cu119   2.003       .  S
O111        C121   1.277       .  A
O112       Cu119   2.015       .  S
O112        C122   1.278       .  A
O113       Cu119   1.989       .  S
O113        C123   1.276       .  A
O114       Cu119   1.991       .  S
O114        C124   1.275   1_455  A
O115       Cu120   2.019   1_655  S
O115        C124   1.279       .  A
O116       Cu120   2.013       .  S
O116        C123   1.277       .  A
O117       Cu120   2.018       .  S
O117        C122   1.279       .  A
O118       Cu120   2.016       .  S
O118        C121   1.278       .  A
Cu119      Cu120   2.376       .  S
C121        C200   1.468       .  S
C122        C306   1.474       .  S
N125        N126   1.322       .  A
N125        C129   1.348       .  A
N125       Cu133   2.077       .  S
N126        C127   1.337       .  A
N126       Cu132   2.044       .  S
C127        C128   1.375       .  A
C127        H130   1.082       .  S
C128        C357   1.462       .  S
C128        C129   1.385       .  A
C129        H131   1.082       .  S
Cu132       N135   2.045       .  S
Cu133       N143   2.078       .  S
Cu134       N136   2.068       .  S
Cu134       N142   2.068       .  S
N135        N136   1.320       .  A
N135        C139   1.343       .  A
N136        C137   1.342       .  A
C137        C138   1.383       .  A
C137        H140   1.082       .  S
C138        C344   1.461       .  S
C138        C139   1.378       .  A
C139        H141   1.082       .  S
N142        N143   1.323       .  A
N142        C146   1.343       .  A
N143        C144   1.344       .  A
C144        C145   1.385       .  A
C144        H147   1.082       .  S
C145        C597   1.472       .  S
C145        C146   1.382       .  A
C146        H148   1.082       .  S
N149        N150   1.323       .  A
N149        C153   1.350       .  A
N149       Cu157   2.083       .  S
N150        C151   1.336       .  A
N150       Cu156   2.055       .  S
C151        C152   1.376       .  A
C151        H154   1.082       .  S
C152        C328   1.462       .  S
C152        C153   1.386       .  A
C153        H155   1.082       .  S
Cu156       N159   2.055       .  S
Cu157       N167   2.084       .  S
Cu158       N160   2.055       .  S
Cu158       N166   2.056       .  S
N159        N160   1.318       .  A
N159        C163   1.344       .  A
N160        C161   1.342       .  A
C161        C162   1.382       .  A
C161        H164   1.082       .  S
C162        C466   1.462       .  S
C162        C163   1.382       .  A
C163        H165   1.082       .  S
N166        N167   1.323       .  A
N166        C170   1.338       .  A
N167        C168   1.349       .  A
C168        C169   1.387       .  A
C168        H171   1.082       .  S
C169        C594   1.471       .  S
C169        C170   1.378       .  A
C170        H172   1.082       .  S
N173        N174   1.322       .  A
N173        C177   1.346       .  A
N173       Cu181   2.060       .  S
N174        C175   1.342       .  A
N174       Cu180   2.076       .  S
C175        C176   1.383       .  A
C175        H178   1.082       .  S
C176        C342   1.464       .  S
C176        C177   1.380       .  A
C177        H179   1.082       .  S
Cu180       N183   2.076       .  S
Cu181       N191   2.060       .  S
Cu182       N184   2.083       .  S
Cu182       N190   2.083       .  S
N183        N184   1.323       .  A
N183        C187   1.347       .  A
N184        C185   1.345       .  A
C185        C186   1.384       .  A
C185        H188   1.082       .  S
C186        C187   1.384       .  A
C187        H189   1.082       .  S
N190        N191   1.322       .  A
N190        C194   1.347       .  A
N191        C192   1.342       .  A
C192        C193   1.381       .  A
C192        H195   1.082       .  S
C193        C579   1.473   1_455  S
C193        C194   1.386       .  A
C194        H196   1.082       .  S
N197        N198   1.322   1_655  A
N197        C201   1.346       .  A
N197       Cu205   2.074       .  S
N198        C199   1.343       .  A
N198       Cu204   2.068       .  S
C199        C200   1.381       .  A
C199        H202   1.082       .  S
C200        C201   1.384   1_455  A
C201        H203   1.082       .  S
Cu204       N207   2.067       .  S
Cu205       N215   2.075       .  S
Cu206       N208   2.081       .  S
Cu206       N214   2.081       .  S
N207        N208   1.322   1_455  A
N207        C211   1.344       .  A
N208        C209   1.347       .  A
C209        C210   1.386   1_655  A
C209        H212   1.082       .  S
C210        C330   1.471       .  S
C210        C211   1.382       .  A
C211        H213   1.082       .  S
N214        N215   1.323       .  A
N214        C218   1.345       .  A
N215        C216   1.345       .  A
C216        C217   1.384       .  A
C216        H219   1.082       .  S
C217        C576   1.475       .  S
C217        C218   1.384       .  A
C218        H220   1.082       .  S
N221        N222   1.321       .  A
N221        C225   1.350   1_655  A
N221       Cu229   2.078       .  S
N222        C223   1.336       .  A
N222       Cu228   2.044       .  S
C223        C224   1.376   1_655  A
C223        H226   1.082       .  S
C224        C343   1.463       .  S
C224        C225   1.386       .  A
C225        H227   1.082       .  S
Cu228       N231   2.043       .  S
Cu229       N239   2.080       .  S
Cu230       N232   2.065       .  S
Cu230       N238   2.067       .  S
N231        N232   1.319       .  A
N231        C235   1.340       .  A
N232        C233   1.344       .  A
C233        C234   1.385       .  A
C233        H236   1.082       .  S
C234        C358   1.460       .  S
C234        C235   1.378       .  A
C235        H237   1.082       .  S
N238        N239   1.324       .  A
N238        C242   1.341       .  A
N239        C240   1.346       .  A
C240        C241   1.384       .  A
C240        H243   1.082       .  S
C241        C558   1.470       .  S
C241        C242   1.380       .  A
C242        H244   1.082       .  S
N245        N246   1.323       .  A
N245        C249   1.346       .  A
N245       Cu253   2.080       .  S
N246        C247   1.339       .  A
N246       Cu252   2.047       .  S
C247        C248   1.375       .  A
C247        H250   1.082       .  S
C248        C465   1.461       .  S
C248        C249   1.385       .  A
C249        H251   1.082       .  S
Cu252       N255   2.047       .  S
Cu253       N263   2.081       .  S
Cu254       N256   2.064       .  S
Cu254       N262   2.062       .  S
N255        N256   1.319       .  A
N255        C259   1.343       .  A
N256        C257   1.343       .  A
C257        C258   1.383       .  A
C257        H260   1.082       .  S
C258        C327   1.461       .  S
C258        C259   1.379       .  A
C259        H261   1.082       .  S
N262        N263   1.323       .  A
N262        C266   1.339       .  A
N263        C264   1.348       .  A
C264        C265   1.387       .  A
C264        H267   1.082       .  S
C265        C561   1.471       .  S
C265        C266   1.379       .  A
C266        H268   1.082       .  S
N269        N270   1.322       .  A
N269        C273   1.349       .  A
N269       Cu277   2.085       .  S
N270        C271   1.342       .  A
N270       Cu276   2.065   1_565  S
C271        C272   1.381       .  A
C271        H274   1.082       .  S
C272        C273   1.386       .  A
C273        H275   1.082       .  S
Cu276       N279   2.064       .  S
Cu277       N287   2.085   1_565  S
Cu278       N280   2.088       .  S
Cu278       N286   2.089       .  S
N279        N280   1.322       .  A
N279        C283   1.346       .  A
N280        C281   1.345       .  A
C281        C282   1.385       .  A
C281        H284   1.082       .  S
C282        C341   1.469       .  S
C282        C283   1.381       .  A
C283        H285   1.082       .  S
N286        N287   1.323       .  A
N286        C290   1.349       .  A
N287        C288   1.346   1_545  A
C288        C289   1.385   1_565  A
C288        H291   1.081       .  S
C289        C543   1.481       .  S
C289        C290   1.387       .  A
C290        H292   1.082       .  S
N293        N294   1.322       .  A
N293        C297   1.348       .  A
N293       Cu301   2.080       .  S
N294        C295   1.345       .  A
N294       Cu300   2.078       .  S
C295        C296   1.384       .  A
C295        H298   1.082       .  S
C296        C329   1.473       .  S
C296        C297   1.385       .  A
C297        H299   1.082       .  S
Cu300       N303   2.078   1_545  S
Cu301       N311   2.080       .  S
Cu302       N304   2.092       .  S
Cu302       N310   2.092   1_565  S
N303        N304   1.324       .  A
N303        C307   1.346       .  A
N304        C305   1.348       .  A
C305        C306   1.386       .  A
C305        H308   1.082       .  S
C306        C307   1.383       .  A
C307        H309   1.082       .  S
N310        N311   1.323       .  A
N310        C314   1.349   1_545  A
N311        C312   1.345       .  A
C312        C313   1.384       .  A
C312        H315   1.081       .  S
C313        C540   1.481       .  S
C313        C314   1.388   1_545  A
C314        H316   1.082       .  S
O317       Cu325   1.984       .  S
O317        C327   1.273   1_455  A
O318       Cu325   1.980       .  S
O318        C328   1.275       .  A
O319       Cu325   2.022       .  S
O319        C329   1.279       .  A
O320       Cu325   2.011       .  S
O320        C330   1.278       .  A
O321       Cu326   2.016   1_655  S
O321        C330   1.278   1_655  A
O322       Cu326   2.007       .  S
O322        C329   1.277       .  A
O323       Cu326   2.017       .  S
O323        C328   1.278       .  A
O324       Cu326   2.021   1_655  S
O324        C327   1.280       .  A
Cu325      Cu326   2.377       .  S
O331       Cu339   1.996       .  S
O331        C341   1.275       .  A
O332       Cu339   1.983       .  S
O332        C342   1.274       .  A
O333       Cu339   2.022       .  S
O333        C343   1.279       .  A
O334       Cu339   2.025       .  S
O334        C344   1.281       .  A
O335       Cu340   1.974       .  S
O335        C344   1.272       .  A
O336       Cu340   1.976       .  S
O336        C343   1.274       .  A
O337       Cu340   2.025       .  S
O337        C342   1.280       .  A
O338       Cu340   2.025       .  S
O338        C341   1.280       .  A
Cu339      Cu340   2.377       .  S
O345       Cu353   2.015       .  S
O345        C355   1.278       .  A
O346       Cu353   2.014       .  S
O346        C356   1.278       .  A
O347       Cu353   2.010       .  S
O347        C357   1.276       .  A
O348       Cu353   2.008       .  S
O348        C358   1.279       .  A
O349       Cu354   1.987       .  S
O349        C358   1.274       .  A
O350       Cu354   1.991       .  S
O350        C357   1.277       .  A
O351       Cu354   2.012       .  S
O351        C356   1.278       .  A
O352       Cu354   2.005       .  S
O352        C355   1.277       .  A
Cu353      Cu354   2.377       .  S
C355        C362   1.468       .  S
C356        C410   1.471       .  S
N359        N360   1.322       .  A
N359        C363   1.347       .  A
N359       Cu367   2.076       .  S
N360        C361   1.343       .  A
N360       Cu366   2.067       .  S
C361        C362   1.381       .  A
C361        H364   1.082       .  S
C362        C363   1.384       .  A
C363        H365   1.082       .  S
Cu366       N369   2.066       .  S
Cu367       N377   2.077       .  S
Cu368       N370   2.081       .  S
Cu368       N376   2.081       .  S
N369        N370   1.322       .  A
N369        C373   1.344       .  A
N370        C371   1.346       .  A
C371        C372   1.385       .  A
C371        H374   1.082       .  S
C372        C481   1.468       .  S
C372        C373   1.381       .  A
C373        H375   1.082       .  S
N376        N377   1.323       .  A
N376        C380   1.346       .  A
N377        C378   1.345       .  A
C378        C379   1.383       .  A
C378        H381   1.082       .  S
C379        C522   1.476       .  S
C379        C380   1.385       .  A
C380        H382   1.082       .  S
N383        N384   1.322       .  A
N383        C387   1.347       .  A
N383       Cu391   2.071       .  S
N384        C385   1.343       .  A
N384       Cu390   2.074       .  S
C385        C386   1.383       .  A
C385        H388   1.082       .  S
C386        C493   1.468       .  S
C386        C387   1.383       .  A
C387        H389   1.082       .  S
Cu390       N393   2.074       .  S
Cu391       N401   2.072       .  S
Cu392       N394   2.080       .  S
Cu392       N400   2.081       .  S
N393        N394   1.323       .  A
N393        C397   1.346       .  A
N394        C395   1.346       .  A
C395        C396   1.384       .  A
C395        H398   1.082       .  S
C396        C468   1.471       .  S
C396        C397   1.383       .  A
C397        H399   1.082       .  S
N400        N401   1.323       .  A
N400        C404   1.347       .  A
N401        C402   1.343       .  A
C402        C403   1.383       .  A
C402        H405   1.082       .  S
C403        C525   1.475       .  S
C403        C404   1.385       .  A
C404        H406   1.082       .  S
N407        N408   1.322       .  A
N407        C411   1.346       .  A
N407       Cu415   2.079       .  S
N408        C409   1.345       .  A
N408       Cu414   2.075       .  S
C409        C410   1.383       .  A
C409        H412   1.082       .  S
C410        C411   1.384       .  A
C411        H413   1.082       .  S
Cu414       N417   2.075   1_545  S
Cu415       N425   2.080       .  S
Cu416       N418   2.073       .  S
Cu416       N424   2.074       .  S
N417        N418   1.322       .  A
N417        C421   1.344       .  A
N418        C419   1.346       .  A
C419        C420   1.383       .  A
C419        H422   1.082       .  S
C420        C482   1.470       .  S
C420        C421   1.383       .  A
C421        H423   1.082       .  S
N424        N425   1.323   1_565  A
N424        C428   1.346       .  A
N425        C426   1.345       .  A
C426        C427   1.385       .  A
C426        H429   1.082       .  S
C427        C504   1.475       .  S
C427        C428   1.383   1_545  A
C428        H430   1.082       .  S
N431        N432   1.321       .  A
N431        C435   1.347       .  A
N431       Cu439   2.074       .  S
N432        C433   1.343       .  A
N432       Cu438   2.064       .  S
C433        C434   1.381       .  A
C433        H436   1.082       .  S
C434        C467   1.467       .  S
C434        C435   1.384       .  A
C435        H437   1.082       .  S
Cu438       N441   2.064   1_545  S
Cu439       N449   2.075       .  S
Cu440       N442   2.078       .  S
Cu440       N448   2.078       .  S
N441        N442   1.323       .  A
N441        C445   1.344       .  A
N442        C443   1.345       .  A
C443        C444   1.383       .  A
C443        H446   1.082       .  S
C444        C494   1.466       .  S
C444        C445   1.380       .  A
C445        H447   1.082       .  S
N448        N449   1.323   1_565  A
N448        C452   1.347       .  A
N449        C450   1.343       .  A
C450        C451   1.383       .  A
C450        H453   1.081       .  S
C451        C507   1.475       .  S
C451        C452   1.385   1_545  A
C452        H454   1.082       .  S
O455       Cu463   1.999       .  S
O455        C465   1.278       .  A
O456       Cu463   1.997       .  S
O456        C466   1.276       .  A
O457       Cu463   2.000       .  S
O457        C467   1.276       .  A
O458       Cu463   2.010       .  S
O458        C468   1.277       .  A
O459       Cu464   2.015       .  S
O459        C468   1.279       .  A
O460       Cu464   2.018       .  S
O460        C467   1.279       .  A
O461       Cu464   2.004       .  S
O461        C466   1.277       .  A
O462       Cu464   1.998       .  S
O462        C465   1.275       .  A
Cu463      Cu464   2.377       .  S
O469       Cu477   2.012       .  S
O469        C479   1.278       .  A
O470       Cu477   2.019       .  S
O470        C480   1.280       .  A
O471       Cu477   2.005       .  S
O471        C481   1.276       .  A
O472       Cu477   2.000       .  S
O472        C482   1.276       .  A
O473       Cu478   2.023       .  S
O473        C482   1.280       .  A
O474       Cu478   2.014       .  S
O474        C481   1.279       .  A
O475       Cu478   1.971       .  S
O475        C480   1.272       .  A
O476       Cu478   1.971       .  S
O476        C479   1.273       .  A
Cu477      Cu478   2.378       .  S
O483       Cu491   2.023       .  S
O483        C493   1.280       .  A
O484       Cu491   2.012       .  S
O484        C494   1.279       .  A
O485       Cu491   1.976       .  S
O485        C495   1.272       .  A
O486       Cu491   1.981       .  S
O486        C496   1.275       .  A
O487       Cu492   2.020       .  S
O487        C496   1.278       .  A
O488       Cu492   2.019       .  S
O488        C495   1.280       .  A
O489       Cu492   1.999       .  S
O489        C494   1.276       .  A
O490       Cu492   1.995       .  S
O490        C493   1.275       .  A
Cu491      Cu492   2.378       .  S
C497        N503   1.345       .  A
C497        C502   1.384   1_565  A
C497        C498   1.406       .  A
C498        C499   1.405       .  A
C498        H509   1.082       .  S
C499        C508   1.381       .  A
C499        C500   1.384   1_565  A
C500        N506   1.340       .  A
C500        C501   1.401       .  A
C501        C502   1.399       .  A
C501        H510   1.082       .  S
C502        C505   1.375       .  A
N503        C504   1.357   1_565  A
N503        H513   1.045       .  S
C504        C505   1.394       .  A
C505        H511   1.082       .  S
N506        C507   1.355       .  A
N506        H514   1.045       .  S
C507        C508   1.397   1_545  A
C508        H512   1.082       .  S
C515        N521   1.344       .  A
C515        C520   1.384       .  A
C515        C516   1.403       .  A
C516        C517   1.402       .  A
C516        H527   1.082       .  S
C517        C526   1.376       .  A
C517        C518   1.384       .  A
C518        N524   1.345       .  A
C518        C519   1.404       .  A
C519        C520   1.404       .  A
C519        H528   1.082       .  S
C520        C523   1.378       .  A
N521        C522   1.356   1_556  A
N521        H531   1.042       .  S
C522        C523   1.397   1_554  A
C523        H529   1.082       .  S
N524        C525   1.357       .  A
N524        H532   1.042       .  S
C525        C526   1.395       .  A
C526        H530   1.082       .  S
C533        N539   1.344       .  A
C533        C538   1.384       .  A
C533        C534   1.405       .  A
C534        C535   1.404       .  A
C534        H545   1.082       .  S
C535        C544   1.381       .  A
C535        C536   1.384       .  A
C536        N542   1.344   1_545  A
C536        C537   1.405   1_545  A
C537        C538   1.404   1_565  A
C537        H546   1.082       .  S
C538        C541   1.382   1_545  A
N539        C540   1.357       .  A
N539        H549   1.045       .  S
C540        C541   1.397   1_545  A
C541        H547   1.082       .  S
N542        C543   1.357   1_565  A
N542        H550   1.044       .  S
C543        C544   1.397       .  A
C544        H548   1.082       .  S
C551        N557   1.343       .  A
C551        C556   1.385       .  A
C551        C552   1.400       .  A
C552        C553   1.400       .  A
C552        H563   1.082       .  S
C553        C562   1.372       .  A
C553        C554   1.385       .  A
C554        N560   1.344       .  A
C554        C555   1.401       .  A
C555        C556   1.401       .  A
C555        H564   1.082       .  S
C556        C559   1.373       .  A
N557        C558   1.355       .  A
N557        H567   1.044       .  S
C558        C559   1.394       .  A
C559        H565   1.082       .  S
N560        C561   1.355       .  A
N560        H568   1.044       .  S
C561        C562   1.395       .  A
C562        H566   1.082       .  S
C569        N575   1.343       .  A
C569        C574   1.384       .  A
C569        C570   1.403       .  A
C570        C571   1.402       .  A
C570        H581   1.082       .  S
C571        C580   1.376   1_556  A
C571        C572   1.384       .  A
C572        N578   1.343   1_556  A
C572        C573   1.403       .  A
C573        C574   1.403       .  A
C573        H582   1.082       .  S
C574        C577   1.378       .  A
N575        C576   1.355       .  A
N575        H585   1.045       .  S
C576        C577   1.396       .  A
C577        H583   1.082       .  S
N578        C579   1.355       .  A
N578        H586   1.046       .  S
C579        C580   1.396       .  A
C580        H584   1.082       .  S
C587        N593   1.345       .  A
C587        C592   1.384       .  A
C587        C588   1.403       .  A
C588        C589   1.404       .  A
C588        H599   1.082       .  S
C589        C598   1.377   1_556  A
C589        C590   1.385       .  A
C590        N596   1.341       .  A
C590        C591   1.400       .  A
C591        C592   1.399       .  A
C591        H600   1.083       .  S
C592        C595   1.371       .  A
N593        C594   1.356       .  A
N593        H603   1.044       .  S
C594        C595   1.394       .  A
C595        H601   1.082       .  S
N596        C597   1.354   1_556  A
N596        H604   1.044       .  S
C597        C598   1.396       .  A
C598        H602   1.082       .  S
C605        N611   1.343       .  A
C605        C610   1.385       .  A
C605        C606   1.401       .  A
C606        C607   1.401       .  A
C606        H617   1.083       .  S
C607        C616   1.374       .  A
C607        C608   1.385       .  A
C608        N614   1.343       .  A
C608        C609   1.401       .  A
C609        C610   1.401       .  A
C609        H618   1.082       .  S
C610        C613   1.375       .  A
N611        C612   1.355       .  A
N611        H621   1.044       .  S
C612        C613   1.395       .  A
C613        H619   1.082       .  S
N614        C615   1.355       .  A
N614        H622   1.044       .  S
C615        C616   1.395       .  A
C616        H620   1.082       .  S
C623        N629   1.340   1_556  A
C623        C628   1.385       .  A
C623        C624   1.401       .  A
C624        C625   1.399       .  A
C624        H635   1.082       .  S
C625        C634   1.375       .  A
C625        C626   1.384       .  A
C626        N632   1.343       .  A
C626        C627   1.403       .  A
C627        C628   1.402       .  A
C627        H636   1.082       .  S
C628        C631   1.377   1_556  A
N629        C630   1.355       .  A
N629        H639   1.044       .  S
C630        C631   1.396       .  A
C631        H637   1.082       .  S
N632        C633   1.356       .  A
N632        H640   1.044       .  S
C633        C634   1.394       .  A
C634        H638   1.082       .  S
