geometry optimzed in LAMMPS
_audit_creation_date              2020-12-01 
_audit_creation_method            'lammps2cif' 
_symmetry_space_group_name_H-M    'P1' 
_symmetry_Int_Tables_number       1 
_symmetry_cell_setting            triclinic 
loop_ 
_symmetry_equiv_pos_as_xyz 
  x,y,z 
_cell_length_a                    62.45447924 
_cell_length_b                    39.0050530390675 
_cell_length_c                    48.938641077373 
_cell_angle_alpha                 90.02891432868238 
_cell_angle_beta                  90.2894201655816 
_cell_angle_gamma                 89.9158791272425 
loop_ 
_atom_site_label 
_atom_site_type_symbol 
_atom_site_fract_x 
_atom_site_fract_y 
_atom_site_fract_z 
_atom_site_charge 
N1          N  0.14210619  0.03877368  0.41953024    -0.27400
N2          N  0.16042522  0.02564655  0.41095880    -0.35300
C3          C  0.17651649  0.03810592  0.42638528     0.00900
C4          C  0.16791045  0.06052664  0.44523023     0.07000
C5          C  0.14610451  0.06047476  0.44028492    -0.06100
H6          H  0.19325867  0.03188566  0.42365569     0.07600
H7          H  0.13399640  0.07476402  0.45120887     0.08800
Cu8        Cu  0.16292819  0.99260771  0.37799684     0.44200
Cu9        Cu  0.11235892  0.02527323  0.40382549     0.42000
Cu10       Cu  0.11274315  0.45803524  0.35279015     0.43900
N11         N  0.16060947  0.45916157  0.34498571    -0.34800
N12         N  0.14237556  0.44534197  0.33670263    -0.29100
C13         C  0.14636987  0.42370561  0.31594686    -0.05200
C14         C  0.16809582  0.42435897  0.31071881     0.07100
C15         C  0.17664906  0.44718704  0.32939005     0.00900
H16         H  0.13430222  0.40899006  0.30520433     0.08500
H17         H  0.19332567  0.45405644  0.33185428     0.07600
N18         N  0.08498471  0.47899454  0.36886426    -0.36200
N19         N  0.08481806  0.00386564  0.38718608    -0.28400
C20         C  0.06437214  0.01205582  0.39274936    -0.03700
C21         C  0.05101166  0.49135250  0.37760528     0.04900
C22         C  0.06467014  0.47080892  0.36243673     0.03000
H23         H  0.05973645  0.03169172  0.40715493     0.08100
H24         H  0.06026630  0.45114699  0.34788346     0.07000
N25         N  0.75658955  0.44303551  0.41594846    -0.27400
N26         N  0.73844065  0.45835567  0.40910107    -0.35300
C27         C  0.72265469  0.44658755  0.42515394     0.00900
C28         C  0.73128220  0.42247902  0.44273041     0.07000
C29         C  0.75277942  0.42070474  0.43626935    -0.06100
H30         H  0.70615291  0.45498770  0.42409551     0.07600
H31         H  0.76489340  0.40516144  0.44618647     0.08800
Cu32       Cu  0.73606050  0.49476642  0.37849510     0.44200
Cu33       Cu  0.78606328  0.45583979  0.39948963     0.42000
Cu34       Cu  0.78603185  0.03088219  0.35625804     0.43900
N35         N  0.73820967  0.03013886  0.34736541    -0.34800
N36         N  0.75643369  0.04476968  0.34023007    -0.29100
C37         C  0.75260087  0.06693160  0.31972646    -0.05200
C38         C  0.73100288  0.06578015  0.31345299     0.07100
C39         C  0.72235454  0.04218404  0.33131220     0.00900
H40         H  0.76476973  0.08178174  0.30946433     0.08500
H41         H  0.70580134  0.03419598  0.33247366     0.07600
N42         N  0.81369713  0.00660772  0.36987215    -0.36200
N43         N  0.81379829  0.47837687  0.38482334    -0.28400
C44         C  0.83412126  0.46856826  0.38967633    -0.03700
C45         C  0.84775944  0.49154051  0.37696750     0.04900
C46         C  0.83407303  0.01543624  0.36461933     0.03000
H47         H  0.83857252  0.44665220  0.40199775     0.08100
H48         H  0.83862368  0.03738994  0.35248716     0.07000
O49         O  0.22864299  0.35968969  0.22438762    -0.73100
O50         O  0.19778209  0.41459582  0.28143687    -0.74000
O51         O  0.22856510  0.36078155  0.28204405    -0.62700
O52         O  0.19805814  0.41349010  0.22295876    -0.71100
O53         O  0.17146259  0.37575469  0.22332878    -0.70600
O54         O  0.20195283  0.32308984  0.28253420    -0.61900
O55         O  0.17118139  0.37685446  0.28087922    -0.74400
O56         O  0.20204553  0.32193951  0.22399302    -0.73200
Cu57       Cu  0.21416193  0.38852372  0.25271649     1.04600
Cu58       Cu  0.18577416  0.34801265  0.25271466     1.04300
C59         C  0.22012329  0.33228422  0.21512015     0.93100
C60         C  0.17958375  0.40438291  0.29004785     0.92300
C61         C  0.22005825  0.33356718  0.29153828     0.84400
C62         C  0.18001257  0.40295002  0.21384586     0.90700
N63         N  0.25693690  0.29153440  0.33872550    -0.27400
N64         N  0.23863937  0.27726364  0.34601900    -0.35300
C65         C  0.22269648  0.29017320  0.33053762     0.00900
C66         C  0.23133629  0.31399889  0.31286920     0.07000
C67         C  0.25304788  0.31436198  0.31868079    -0.06100
H68         H  0.20607418  0.28264024  0.33197493     0.07600
H69         H  0.26522790  0.32918776  0.30841973     0.08800
Cu70       Cu  0.23620846  0.24059519  0.37640704     0.44200
Cu71       Cu  0.28660136  0.27667262  0.35435944     0.42000
Cu72       Cu  0.28656720  0.20374550  0.39980971     0.43900
N73         N  0.23856975  0.20440422  0.40720117    -0.34800
N74         N  0.25679183  0.18994406  0.41492035    -0.29100
C75         C  0.25285393  0.16792852  0.43541839    -0.05200
C76         C  0.23120865  0.16906226  0.44111118     0.07100
C77         C  0.22261956  0.19241833  0.42288316     0.00900
H78         H  0.26499129  0.15330153  0.44614604     0.08500
H79         H  0.20606141  0.20040315  0.42130018     0.07600
N80         N  0.31436810  0.22646320  0.38541355    -0.36200
N81         N  0.31438263  0.25350747  0.36918118    -0.28400
C82         C  0.33476367  0.26224815  0.36382099    -0.03700
C83         C  0.34839366  0.23964738  0.37735602     0.04900
C84         C  0.33472996  0.21732638  0.39086704     0.03000
H85         H  0.33918636  0.28352753  0.35090045     0.08100
H86         H  0.33911778  0.19592594  0.40376371     0.07000
N87         N  0.64356876  0.19964756  0.33463621    -0.27400
N88         N  0.66205502  0.21261060  0.34292236    -0.35300
C89         C  0.67789422  0.19927370  0.32770673     0.00900
C90         C  0.66889846  0.17650415  0.30933287     0.07000
C91         C  0.64717414  0.17725189  0.31430902    -0.06100
H92         H  0.69470691  0.20523500  0.33019367     0.07600
H93         H  0.63483626  0.16301768  0.30365608     0.08800
Cu94       Cu  0.66495625  0.24661136  0.37519323     0.44200
Cu95       Cu  0.61400830  0.21376993  0.34998037     0.42000
Cu96       Cu  0.61381849  0.27858835  0.40106639     0.43900
N97         N  0.66200398  0.27977080  0.40798614    -0.34800
N98         N  0.64352976  0.29241488  0.41649972    -0.29100
C99         C  0.64718737  0.31368735  0.43760125    -0.05200
C100        C  0.66891273  0.31395631  0.44286815     0.07100
C101        C  0.67786856  0.29216963  0.42381616     0.00900
H102        H  0.63486456  0.32724502  0.44871855     0.08500
H103        H  0.69465843  0.28603275  0.42143936     0.07600
N104        N  0.58593748  0.25759393  0.38521779    -0.36200
N105        N  0.58605133  0.23342128  0.36635197    -0.28400
C106        C  0.56575918  0.22460379  0.36038485    -0.03700
C107        C  0.55205995  0.24411670  0.37638586     0.04900
C108        C  0.56555175  0.26476865  0.39190399     0.03000
H109        H  0.56143314  0.20510129  0.34566668     0.08100
H110        H  0.56100435  0.28373199  0.40692015     0.07000
O111        O  0.72853717  0.37624131  0.03156089    -0.73100
O112        O  0.69804040  0.32268342  0.47335017    -0.74000
O113        O  0.72865853  0.37598067  0.47364615    -0.62700
O114        O  0.69783357  0.32269652  0.03196978    -0.71100
O115        O  0.67119423  0.36050084  0.03132336    -0.70600
O116        O  0.70216628  0.41404394  0.47311746    -0.61900
O117        O  0.67147274  0.36064030  0.47357256    -0.74400
O118        O  0.70193280  0.41411129  0.03196395    -0.73200
Cu119      Cu  0.71406900  0.34799991  0.00282286     1.04600
Cu120      Cu  0.68567456  0.38867657  0.00265897     1.04300
C121        C  0.72008337  0.40364674  0.04083944     0.93100
C122        C  0.68000413  0.33329784  0.46427043     0.92300
C123        C  0.72016370  0.40329997  0.46416058     0.84400
C124        C  0.67968481  0.33309490  0.04066220     0.90700
N125        N  0.25664080  0.29201595  0.16729576    -0.27400
N126        N  0.23840953  0.27764407  0.15963545    -0.35300
C127        C  0.22256437  0.28944762  0.17565549     0.00900
C128        C  0.23128269  0.31264210  0.19395915     0.07000
C129        C  0.25286069  0.31377653  0.18801760    -0.06100
H130        H  0.20593057  0.28201893  0.17387524     0.07600
H131        H  0.26501960  0.32871246  0.19838978     0.08800
Cu132      Cu  0.23609473  0.24324491  0.12739510     0.44200
Cu133      Cu  0.28614603  0.27935354  0.15107055     0.42000
Cu134      Cu  0.28680591  0.20978856  0.10265495     0.43900
N135        N  0.23885080  0.20948105  0.09480590    -0.34800
N136        N  0.25723864  0.19609018  0.08673990    -0.29100
C137        C  0.25352351  0.17447010  0.06585562    -0.05200
C138        C  0.23183112  0.17473348  0.06023523     0.07100
C139        C  0.22298540  0.19722720  0.07888180     0.00900
H140        H  0.26577876  0.16020396  0.05518119     0.08500
H141        H  0.20624081  0.20380878  0.08100992     0.07600
N142        N  0.31427504  0.23240450  0.11821216    -0.36200
N143        N  0.31401565  0.25814799  0.13574628    -0.28400
C144        C  0.33426862  0.26716362  0.14173952    -0.03700
C145        C  0.34803164  0.24619378  0.12712349     0.04900
C146        C  0.33470505  0.22447691  0.11240327     0.03000
H147        H  0.33855622  0.28770037  0.15556043     0.08100
H148        H  0.33941479  0.20416433  0.09863501     0.07000
N149        N  0.64258999  0.29024835  0.08622173    -0.27400
N150        N  0.66093654  0.27685390  0.09465054    -0.35300
C151        C  0.67699093  0.29007169  0.07979026     0.00900
C152        C  0.66832548  0.31320697  0.06143895     0.07000
C153        C  0.64652467  0.31282801  0.06611948    -0.06100
H154        H  0.69371280  0.28340507  0.08224678     0.07600
H155        H  0.63434605  0.32711043  0.05517321     0.08800
Cu156      Cu  0.66339811  0.24149725  0.12605099     0.44200
Cu157      Cu  0.61285088  0.27545660  0.10074564     0.42000
Cu158      Cu  0.61289706  0.20832718  0.15118204     0.43900
N159        N  0.66101322  0.20644901  0.15764085    -0.34800
N160        N  0.64267215  0.19333115  0.16604262    -0.29100
C161        C  0.64663014  0.17121364  0.18653254    -0.05200
C162        C  0.66843979  0.17086870  0.19149781     0.07100
C163        C  0.67708183  0.19352238  0.17289100     0.00900
H164        H  0.63445268  0.15737334  0.19763568     0.08500
H165        H  0.69378593  0.20021501  0.17063500     0.07600
N166        N  0.58509382  0.22985918  0.13524116    -0.36200
N167        N  0.58509389  0.25440847  0.11665594    -0.28400
C168        C  0.56473918  0.26281328  0.11051838    -0.03700
C169        C  0.55117381  0.24273015  0.12613378     0.04900
C170        C  0.56472947  0.22215859  0.14159841     0.03000
H171        H  0.56023425  0.28250587  0.09603290     0.08100
H172        H  0.56020384  0.20280099  0.15628247     0.07000
O173        O  0.67122410  0.12493469  0.22299748    -0.73100
O174        O  0.70173436  0.07390604  0.28287537    -0.74000
O175        O  0.67132125  0.12798832  0.28043612    -0.62700
O176        O  0.70177870  0.07091399  0.22445237    -0.71100
O177        O  0.72845302  0.10853717  0.22410227    -0.70600
O178        O  0.69812775  0.16537560  0.27989849    -0.61900
O179        O  0.72846757  0.11135866  0.28154357    -0.74400
O180        O  0.69796609  0.16237368  0.22159063    -0.73200
Cu181      Cu  0.68560631  0.09802876  0.25272755     1.04600
Cu182      Cu  0.71414719  0.13827403  0.25172943     1.04300
C183        C  0.67978478  0.15178783  0.21296266     0.93100
C184        C  0.71985517  0.08457330  0.29163832     0.92300
C185        C  0.67998034  0.15566211  0.28894299     0.84400
C186        C  0.71994298  0.08082480  0.21550962     0.90700
O187        O  0.17175390  0.11189628  0.03125027    -0.73100
O188        O  0.20206047  0.16189559  0.47163142    -0.74000
O189        O  0.17114843  0.10878954  0.47424376    -0.62700
O190        O  0.20254344  0.16511280  0.03001684    -0.71100
O191        O  0.22903196  0.12703585  0.03047681    -0.70600
O192        O  0.19762065  0.07067728  0.47468472    -0.61900
O193        O  0.22852121  0.12380980  0.47315224    -0.74400
O194        O  0.19821249  0.07379435  0.03254547    -0.73200
Cu195      Cu  0.18608708  0.13853887  0.00158197     1.04600
Cu196      Cu  0.21435116  0.09765854  0.00254139     1.04300
C197        C  0.18022192  0.08485491  0.04126875     0.93100
C198        C  0.22003455  0.15071394  0.46293741     0.92300
C199        C  0.17944973  0.08089274  0.46569205     0.84400
C200        C  0.22061226  0.15476432  0.03922206     0.90700
N201        N  0.14352997  0.04539047  0.08927216    -0.27400
N202        N  0.16174558  0.03074181  0.09677438    -0.35300
C203        C  0.17764300  0.04265718  0.08097641     0.00900
C204        C  0.16903312  0.06620112  0.06291779     0.07000
C205        C  0.14741884  0.06746199  0.06879218    -0.06100
H206        H  0.19420166  0.03465184  0.08247531     0.07600
H207        H  0.13528354  0.08236362  0.05830479     0.08800
Cu208      Cu  0.16408434  0.49534418  0.12836789     0.44200
Cu209      Cu  0.11387468  0.03205325  0.10499960     0.42000
Cu210      Cu  0.11376942  0.45883480  0.15037659     0.43900
N211        N  0.16166269  0.45890964  0.15902007    -0.34800
N212        N  0.14339298  0.44441338  0.16614683    -0.29100
C213        C  0.14722324  0.42172273  0.18628627    -0.05200
C214        C  0.16886405  0.42239916  0.19237252     0.07100
C215        C  0.17754411  0.44626914  0.17475402     0.00900
H216        H  0.13503327  0.40678425  0.19642448     0.08500
H217        H  0.19414619  0.45396967  0.17349677     0.07600
N218        N  0.08604706  0.48218753  0.13579305    -0.36200
N219        N  0.08613341  0.00952382  0.11974646    -0.28400
C220        C  0.06577180  0.01870398  0.11440737    -0.03700
C221        C  0.05206318  0.49607110  0.12762567     0.04900
C222        C  0.06567087  0.47333579  0.14103479     0.03000
H223        H  0.06136309  0.04014440  0.10156348     0.08100
H224        H  0.06123940  0.45190896  0.15379998     0.07000
N225        N  0.75702463  0.03908005  0.16930226    -0.27400
N226        N  0.73885848  0.02450889  0.16162327    -0.35300
C227        C  0.72283101  0.03666481  0.17714341     0.00900
C228        C  0.73134000  0.06033871  0.19514208     0.07000
C229        C  0.75299644  0.06135619  0.18958555    -0.06100
H230        H  0.70620349  0.02930833  0.17508212     0.07600
H231        H  0.76500826  0.07674599  0.19981274     0.08800
Cu232      Cu  0.73644698  0.49193845  0.12856014     0.44200
Cu233      Cu  0.78670301  0.02654925  0.15331936     0.42000
Cu234      Cu  0.78690885  0.45838353  0.10368379     0.43900
N235        N  0.73890266  0.45823756  0.09609896    -0.34800
N236        N  0.75721028  0.44475380  0.08785848    -0.29100
C237        C  0.75325253  0.42299762  0.06712951    -0.05200
C238        C  0.73148678  0.42327941  0.06187249     0.07100
C239        C  0.72285998  0.44594384  0.08051238     0.00900
H240        H  0.76538196  0.40865365  0.05629014     0.08500
H241        H  0.70615602  0.45268136  0.08283749     0.07600
N242        N  0.81454587  0.48005031  0.11989356    -0.36200
N243        N  0.81449164  0.00521603  0.13766069    -0.28400
C244        C  0.83480297  0.01423869  0.14335073    -0.03700
C245        C  0.84844598  0.49332377  0.12889471     0.04900
C246        C  0.83494588  0.47220889  0.11379713     0.03000
H247        H  0.83911981  0.03485466  0.15706800     0.08100
H248        H  0.83947989  0.45250806  0.09939493     0.07000
C249        C  0.02819905  0.49620203  0.12745221    -0.03500
C250        C  0.01667406  0.52187581  0.11340964    -0.09200
C251        C  0.99425990  0.52199926  0.11334279    -0.16900
C252        C  0.98306012  0.99635205  0.12746761     0.25300
C253        C  0.99435522  0.97282263  0.14360908    -0.18600
C254        C  0.01676065  0.97280444  0.14378460    -0.07500
C255        C  0.95996276  0.99628671  0.12733407    -0.13900
C256        C  0.94062804  0.99600329  0.12739024    -0.13600
C257        C  0.91753788  0.99540104  0.12763849     0.25200
C258        C  0.90622915  0.01612870  0.14592782    -0.19000
C259        C  0.88383106  0.01539725  0.14631653    -0.07500
C260        C  0.87226970  0.49409690  0.12862672    -0.03600
C261        C  0.88382500  0.47517406  0.10909348    -0.08900
C262        C  0.90621631  0.47605656  0.10874932    -0.16500
H263        H  0.02485667  0.54201455  0.10248288     0.11600
H264        H  0.98573934  0.54202218  0.10244394     0.10900
H265        H  0.98583987  0.95445904  0.15609288     0.10800
H266        H  0.02493986  0.95430327  0.15655749     0.11300
H267        H  0.91472709  0.03282874  0.15995281     0.11400
H268        H  0.87562283  0.03162276  0.16081074     0.11400
H269        H  0.87566490  0.45981975  0.09388657     0.11500
H270        H  0.91476966  0.46132781  0.09351464     0.10300
C271        C  0.37177609  0.24679476  0.12722129    -0.03500
C272        C  0.38334872  0.23088853  0.10611343    -0.09200
C273        C  0.40573145  0.23122842  0.10628396    -0.16900
C274        C  0.41687972  0.24734585  0.12755749     0.25300
C275        C  0.40553486  0.26334265  0.14861523    -0.18600
C276        C  0.38313302  0.26314776  0.14844219    -0.07500
C277        C  0.43994170  0.24718896  0.12781042    -0.13900
C278        C  0.45925478  0.24657629  0.12771228    -0.13600
C279        C  0.48230912  0.24552514  0.12730725     0.25200
C280        C  0.49345048  0.25900246  0.10503298    -0.19000
C281        C  0.51583725  0.25806319  0.10461675    -0.07500
C282        C  0.52741129  0.24346597  0.12646151    -0.03600
C283        C  0.51604568  0.22978698  0.14868821    -0.08900
C284        C  0.49365709  0.23089926  0.14911483    -0.16500
H285        H  0.37516770  0.21840046  0.08931587     0.11600
H286        H  0.41434556  0.21884532  0.08983333     0.10900
H287        H  0.41399859  0.27584713  0.16522351     0.10800
H288        H  0.37477423  0.27539955  0.16512189     0.11300
H289        H  0.48483410  0.27025204  0.08797505     0.11400
H290        H  0.52402762  0.26849521  0.08706024     0.11400
H291        H  0.52441295  0.21862547  0.16594191     0.11500
H292        H  0.48520350  0.22039698  0.16647778     0.10300
C293        C  0.37227633  0.23941669  0.37734317    -0.03500
C294        C  0.38380920  0.26343848  0.36176451    -0.09200
C295        C  0.40621990  0.26336632  0.36187861    -0.16900
C296        C  0.41752938  0.23933519  0.37752569     0.25300
C297        C  0.40628295  0.21524384  0.39300402    -0.18600
C298        C  0.38385951  0.21524812  0.39293315    -0.07500
C299        C  0.44063980  0.23954232  0.37776161    -0.13900
C300        C  0.45998049  0.24003155  0.37781872    -0.13600
C301        C  0.48307922  0.24085127  0.37762044     0.25200
C302        C  0.49431264  0.25851822  0.39803934    -0.19000
C303        C  0.51671364  0.25959653  0.39768312    -0.07500
C304        C  0.52825339  0.24295430  0.37686743    -0.03600
C305        C  0.51677213  0.22517472  0.35648157    -0.08900
C306        C  0.49438120  0.22417481  0.35686981    -0.16500
H307        H  0.37563588  0.28240132  0.34943240     0.11600
H308        H  0.41472821  0.28213785  0.34977668     0.10900
H309        H  0.41484385  0.19648023  0.40520201     0.10800
H310        H  0.37571306  0.19633426  0.40520342     0.11300
H311        H  0.48575639  0.27150223  0.41424157     0.11400
H312        H  0.52491090  0.27330289  0.41384335     0.11400
H313        H  0.52499158  0.21225651  0.34001985     0.11500
H314        H  0.48588056  0.21047132  0.34090890     0.10300
C315        C  0.02723932  0.49131186  0.37723197    -0.03500
C316        C  0.01537805  0.01632063  0.39062918    -0.09200
C317        C  0.99298039  0.01594518  0.39026570    -0.16900
C318        C  0.98210706  0.49071629  0.37672771     0.25300
C319        C  0.99351114  0.47561729  0.35531389    -0.18600
C320        C  0.01591016  0.47584953  0.35556160    -0.07500
C321        C  0.95903579  0.49025298  0.37657903    -0.13900
C322        C  0.93971379  0.49008437  0.37659527    -0.13600
C323        C  0.91664030  0.49035131  0.37668468     0.25200
C324        C  0.90550613  0.52064255  0.37081028    -0.19000
C325        C  0.88311304  0.52102094  0.37084192    -0.07500
C326        C  0.87151743  0.49109284  0.37689831    -0.03600
C327        C  0.88268388  0.96081051  0.38287858    -0.08900
C328        C  0.90508850  0.96037581  0.38262352    -0.16500
H329        H  0.02336418  0.03664464  0.40169998     0.11600
H330        H  0.98424974  0.03573325  0.40107153     0.10900
H331        H  0.98509341  0.46362856  0.33842793     0.10800
H332        H  0.02428947  0.46415858  0.33864852     0.11300
H333        H  0.91413551  0.54400027  0.36621780     0.11400
H334        H  0.87492719  0.54486838  0.36642762     0.11400
H335        H  0.87428781  0.93739813  0.38783698     0.11500
H336        H  0.91351290  0.93685678  0.38754284     0.10300
N337        N  0.14247487  0.03913353  0.91884625    -0.27400
N338        N  0.16081366  0.02619009  0.91018903    -0.35300
C339        C  0.17689524  0.03878960  0.92556758     0.00900
C340        C  0.16823967  0.06109634  0.94447763     0.07000
C341        C  0.14642945  0.06084354  0.93960264    -0.06100
H342        H  0.19364828  0.03264751  0.92283352     0.07600
H343        H  0.13428246  0.07491574  0.95063285     0.08800
Cu344      Cu  0.16316716  0.99290604  0.87735998     0.44200
Cu345      Cu  0.11277426  0.02517236  0.90335179     0.42000
Cu346      Cu  0.11273503  0.45758535  0.85297815     0.43900
N347        N  0.16062772  0.45863279  0.84519042    -0.34800
N348        N  0.14237863  0.44474262  0.83702822    -0.29100
C349        C  0.14632353  0.42307904  0.81628013    -0.05200
C350        C  0.16802221  0.42380929  0.81092590     0.07100
C351        C  0.17662336  0.44666165  0.82953104     0.00900
H352        H  0.13422591  0.40841226  0.80555038     0.08500
H353        H  0.19328929  0.45368987  0.83181640     0.07600
N354        N  0.08502378  0.47885024  0.86890900    -0.36200
N355        N  0.08509227  0.00390480  0.88706955    -0.28400
C356        C  0.06472539  0.01215933  0.89298257    -0.03700
C357        C  0.05104218  0.49149087  0.87767839     0.04900
C358        C  0.06467833  0.47040328  0.86287605     0.03000
H359        H  0.06029480  0.03184490  0.90744578     0.08100
H360        H  0.06029600  0.45037085  0.84865462     0.07000
N361        N  0.75644913  0.44316915  0.91661847    -0.27400
N362        N  0.73825517  0.45815097  0.90946071    -0.35300
C363        C  0.72243852  0.44635823  0.92544960     0.00900
C364        C  0.73109279  0.42258099  0.94327783     0.07000
C365        C  0.75263271  0.42103559  0.93706433    -0.06100
H366        H  0.70588607  0.45443930  0.92411722     0.07600
H367        H  0.76475848  0.40571585  0.94717873     0.08800
Cu368      Cu  0.73569893  0.49399004  0.87843803     0.44200
Cu369      Cu  0.78600839  0.45579992  0.90035143     0.42000
Cu370      Cu  0.78613864  0.02978241  0.85566978     0.43900
N371        N  0.73828714  0.02992297  0.84721186    -0.34800
N372        N  0.75657863  0.04408786  0.83978223    -0.29100
C373        C  0.75278487  0.06623134  0.81925431    -0.05200
C374        C  0.73113097  0.06555598  0.81326484     0.07100
C375        C  0.72241334  0.04224965  0.83131898     0.00900
H376        H  0.76500252  0.08076326  0.80880063     0.08500
H377        H  0.70579828  0.03466754  0.83273025     0.07600
N378        N  0.81382515  0.00612077  0.86986180    -0.36200
N379        N  0.81370429  0.47811483  0.88539021    -0.28400
C380        C  0.83407080  0.46865497  0.89038296    -0.03700
C381        C  0.84760916  0.49144451  0.87727720     0.04900
C382        C  0.83417928  0.01505251  0.86459299     0.03000
H383        H  0.83861394  0.44712696  0.90307795     0.08100
H384        H  0.83870203  0.03671080  0.85210785     0.07000
O385        O  0.22842057  0.36013113  0.72408973    -0.73100
O386        O  0.19755358  0.41452486  0.78134964    -0.74000
O387        O  0.22839585  0.36098589  0.78168670    -0.62700
O388        O  0.19775670  0.41372063  0.72288188    -0.71100
O389        O  0.17119842  0.37590685  0.72320748    -0.70600
O390        O  0.20188373  0.32310014  0.78212073    -0.61900
O391        O  0.17103156  0.37663289  0.78077570    -0.74400
O392        O  0.20187304  0.32228319  0.72358326    -0.73200
Cu393      Cu  0.21392311  0.38873413  0.75250834     1.04600
Cu394      Cu  0.18560586  0.34807742  0.75244433     1.04300
C395        C  0.21993499  0.33274465  0.71474755     0.93100
C396        C  0.17942606  0.40411312  0.79004108     0.92300
C397        C  0.21995586  0.33370401  0.79113593     0.84400
C398        C  0.17973044  0.40313214  0.71375818     0.90700
N399        N  0.25690736  0.29236709  0.83852880    -0.27400
N400        N  0.23865454  0.27799511  0.84588482    -0.35300
C401        C  0.22268666  0.29057467  0.83027926     0.00900
C402        C  0.23127090  0.31428063  0.81247792     0.07000
C403        C  0.25296352  0.31493590  0.81832908    -0.06100
H404        H  0.20608545  0.28293625  0.83175392     0.07600
H405        H  0.26509750  0.32979821  0.80801201     0.08800
Cu406      Cu  0.23626180  0.24163533  0.87649910     0.44200
Cu407      Cu  0.28662731  0.27796055  0.85415638     0.42000
Cu408      Cu  0.28662294  0.20515774  0.89974214     0.43900
N409        N  0.23866070  0.20543330  0.90726957    -0.34800
N410        N  0.25692078  0.19108266  0.91495929    -0.29100
C411        C  0.25303571  0.16891428  0.93537592    -0.05200
C412        C  0.23137785  0.16983368  0.94104378     0.07100
C413        C  0.22273423  0.19322920  0.92288406     0.00900
H414        H  0.26520797  0.15429965  0.94604908     0.08500
H415        H  0.20614924  0.20106519  0.92128535     0.07600
N416        N  0.31439727  0.22767136  0.88503272    -0.36200
N417        N  0.31440893  0.25464930  0.86872726    -0.28400
C418        C  0.33478414  0.26316419  0.86310702    -0.03700
C419        C  0.34840223  0.24049376  0.87656426     0.04900
C420        C  0.33475803  0.21836670  0.89029017     0.03000
H421        H  0.33922425  0.28441160  0.85015755     0.08100
H422        H  0.33916790  0.19690928  0.90311758     0.07000
N423        N  0.64369425  0.19907845  0.83493221    -0.27400
N424        N  0.66214268  0.21229129  0.84310102    -0.35300
C425        C  0.67798890  0.19918358  0.82776548     0.00900
C426        C  0.66903766  0.17631525  0.80942797     0.07000
C427        C  0.64733276  0.17675856  0.81456228    -0.06100
H428        H  0.69477745  0.20538609  0.83013167     0.07600
H429        H  0.63502420  0.16238714  0.80397171     0.08800
Cu430      Cu  0.66496034  0.24641557  0.87532611     0.44200
Cu431      Cu  0.61412006  0.21295392  0.85037001     0.42000
Cu432      Cu  0.61381614  0.27883168  0.90070240     0.43900
N433        N  0.66196116  0.27968370  0.90806707    -0.34800
N434        N  0.64348150  0.29248161  0.91641602    -0.29100
C435        C  0.64709543  0.31373696  0.93754597    -0.05200
C436        C  0.66879869  0.31385194  0.94299868     0.07100
C437        C  0.67778248  0.29197887  0.92402487     0.00900
H438        H  0.63475553  0.32740300  0.94854871     0.08500
H439        H  0.69456606  0.28571245  0.92178863     0.07600
N440        N  0.58598075  0.25764204  0.88485680    -0.36200
N441        N  0.58614575  0.23297606  0.86640771    -0.28400
C442        C  0.56587291  0.22403189  0.86047602    -0.03700
C443        C  0.55209911  0.24400093  0.87604167     0.04900
C444        C  0.56557410  0.26505783  0.89126815     0.03000
H445        H  0.56163818  0.20434209  0.84588428     0.08100
H446        H  0.56103570  0.28425290  0.90609259     0.07000
O447        O  0.72880160  0.37637819  0.53117077    -0.73100
O448        O  0.69790120  0.32261021  0.97354847    -0.74000
O449        O  0.72845943  0.37601401  0.97406742    -0.62700
O450        O  0.69800541  0.32292491  0.53178979    -0.71100
O451        O  0.67138828  0.36075788  0.53110062    -0.70600
O452        O  0.70190209  0.41396813  0.97348092    -0.61900
O453        O  0.67127748  0.36046161  0.97380814    -0.74400
O454        O  0.70222105  0.41428935  0.53164322    -0.73200
Cu455      Cu  0.71426143  0.34810283  0.50252897     1.04600
Cu456      Cu  0.68591439  0.38885716  0.50237142     1.04300
C457        C  0.72037496  0.40378621  0.54047926     0.93100
C458        C  0.67985158  0.33317412  0.96446482     0.92300
C459        C  0.71994203  0.40332096  0.96460127     0.84400
C460        C  0.67985679  0.33335087  0.54048005     0.90700
N461        N  0.25658811  0.29248649  0.66713003    -0.27400
N462        N  0.23831956  0.27854757  0.65909671    -0.35300
C463        C  0.22241539  0.29043349  0.67497345     0.00900
C464        C  0.23113412  0.31323628  0.69357061     0.07000
C465        C  0.25277134  0.31405940  0.68796230    -0.06100
H466        H  0.20574913  0.28330186  0.67291261     0.07600
H467        H  0.26493905  0.32863546  0.69864147     0.08800
Cu468      Cu  0.23597330  0.24445598  0.62669421     0.44200
Cu469      Cu  0.28617510  0.27958153  0.65123478     0.42000
Cu470      Cu  0.28662259  0.21027376  0.60267469     0.43900
N471        N  0.23872313  0.21022416  0.59445895    -0.34800
N472        N  0.25710057  0.19656363  0.58665242    -0.29100
C473        C  0.25340117  0.17460622  0.56599017    -0.05200
C474        C  0.23172852  0.17492307  0.56025324     0.07100
C475        C  0.22287774  0.19779821  0.57859704     0.00900
H476        H  0.26565483  0.16007405  0.55554163     0.08500
H477        H  0.20614383  0.20453618  0.58055912     0.07600
N478        N  0.31416500  0.23255565  0.61830459    -0.36200
N479        N  0.31400345  0.25832099  0.63580558    -0.28400
C480        C  0.33429168  0.26719990  0.64172524    -0.03700
C481        C  0.34801525  0.24604109  0.62715482     0.04900
C482        C  0.33455665  0.22439648  0.61251434     0.03000
H483        H  0.33859076  0.28767889  0.65558713     0.08100
H484        H  0.33910425  0.20402208  0.59872325     0.07000
N485        N  0.64271545  0.29033512  0.58598860    -0.27400
N486        N  0.66108132  0.27712748  0.59453904    -0.35300
C487        C  0.67714320  0.29045375  0.57974007     0.00900
C488        C  0.66847342  0.31347529  0.56128947     0.07000
C489        C  0.64664914  0.31290586  0.56586333    -0.06100
H490        H  0.69387704  0.28391939  0.58228990     0.07600
H491        H  0.63445942  0.32705115  0.55482411     0.08800
Cu492      Cu  0.66352255  0.24178587  0.62599783     0.44200
Cu493      Cu  0.61297978  0.27531851  0.60053264     0.42000
Cu494      Cu  0.61308962  0.20799573  0.65092131     0.43900
N495        N  0.66119278  0.20655858  0.65751289    -0.34800
N496        N  0.64288412  0.19319652  0.66578861    -0.29100
C497        C  0.64686488  0.17107535  0.68626591    -0.05200
C498        C  0.66865374  0.17097534  0.69137159     0.07100
C499        C  0.67726366  0.19377184  0.67284265     0.00900
H500        H  0.63470649  0.15708280  0.69728269     0.08500
H501        H  0.69394499  0.20066700  0.67070286     0.07600
N502        N  0.58528655  0.22986713  0.63532996    -0.36200
N503        N  0.58524145  0.25452513  0.61683639    -0.28400
C504        C  0.56486579  0.26315689  0.61100431    -0.03700
C505        C  0.55133237  0.24306908  0.62669180     0.04900
C506        C  0.56494844  0.22228885  0.64189754     0.03000
H507        H  0.56033758  0.28291786  0.59659391     0.08100
H508        H  0.56049313  0.20282017  0.65652106     0.07000
O509        O  0.67141639  0.12507191  0.72289091    -0.73100
O510        O  0.70186124  0.07387904  0.78272561    -0.74000
O511        O  0.67147463  0.12797580  0.78035437    -0.62700
O512        O  0.70193216  0.07106606  0.72429720    -0.71100
O513        O  0.72861393  0.10868115  0.72402812    -0.70600
O514        O  0.69827582  0.16537303  0.77992798    -0.61900
O515        O  0.72861580  0.11129646  0.78147717    -0.74400
O516        O  0.69814310  0.16254212  0.72157026    -0.73200
Cu517      Cu  0.68576370  0.09810054  0.75260206     1.04600
Cu518      Cu  0.71430710  0.13834418  0.75170155     1.04300
C519        C  0.67998204  0.15193557  0.71288199     0.93100
C520        C  0.71998887  0.08448222  0.79151137     0.92300
C521        C  0.68012962  0.15560950  0.78894903     0.84400
C522        C  0.72009703  0.08099964  0.71538148     0.90700
O523        O  0.17168669  0.11190665  0.53165458    -0.73100
O524        O  0.20222109  0.16233399  0.97149782    -0.74000
O525        O  0.17134820  0.10913693  0.97377428    -0.62700
O526        O  0.20245294  0.16506993  0.53011359    -0.71100
O527        O  0.22893582  0.12698190  0.53072465    -0.70600
O528        O  0.19785800  0.07109320  0.97410568    -0.61900
O529        O  0.22871499  0.12430462  0.97288456    -0.74400
O530        O  0.19813871  0.07378818  0.53306815    -0.73200
Cu531      Cu  0.18595963  0.13833641  0.50185438     1.04600
Cu532      Cu  0.21420390  0.09741555  0.50294627     1.04300
C533        C  0.18016511  0.08492801  0.54176279     0.93100
C534        C  0.22021503  0.15126759  0.96277803     0.92300
C535        C  0.17970362  0.08133935  0.96509125     0.84400
C536        C  0.22052087  0.15477702  0.53934955     0.90700
N537        N  0.14344076  0.04550590  0.58962526    -0.27400
N538        N  0.16165305  0.03100219  0.59729814    -0.35300
C539        C  0.17759089  0.04297971  0.58160656     0.00900
C540        C  0.16898745  0.06640779  0.56345155     0.07000
C541        C  0.14735213  0.06754377  0.56914654    -0.06100
H542        H  0.19415695  0.03504204  0.58320324     0.07600
H543        H  0.13521614  0.08226680  0.55849996     0.08800
Cu544      Cu  0.16420743  0.49506682  0.62802636     0.44200
Cu545      Cu  0.11379080  0.03187110  0.60499133     0.42000
Cu546      Cu  0.11376941  0.45891031  0.64988120     0.43900
N547        N  0.16160674  0.45875283  0.65867905    -0.34800
N548        N  0.14328886  0.44442322  0.66580764    -0.29100
C549        C  0.14701210  0.42189079  0.68608484    -0.05200
C550        C  0.16863567  0.42251558  0.69224053     0.07100
C551        C  0.17741764  0.44616679  0.67453468     0.00900
H552        H  0.13476628  0.40710071  0.69625147     0.08500
H553        H  0.19403965  0.45376464  0.67330275     0.07600
N554        N  0.08615179  0.48241245  0.63526323    -0.36200
N555        N  0.08606311  0.00914350  0.61936086    -0.28400
C556        C  0.06574616  0.01821851  0.61369648    -0.03700
C557        C  0.05224987  0.49632851  0.62694270     0.04900
C558        C  0.06576382  0.47358989  0.64042590     0.03000
H559        H  0.06138790  0.03964950  0.60080792     0.08100
H560        H  0.06122197  0.45199329  0.65295762     0.07000
N561        N  0.75723556  0.03904913  0.66941366    -0.27400
N562        N  0.73903444  0.02489029  0.66138057    -0.35300
C563        C  0.72296378  0.03720944  0.67674721     0.00900
C564        C  0.73149512  0.06055357  0.69500426     0.07000
C565        C  0.75319944  0.06121855  0.68976215    -0.06100
H566        H  0.70630331  0.03016273  0.67443160     0.07600
H567        H  0.76523676  0.07627368  0.70025659     0.08800
Cu568      Cu  0.73682427  0.49059142  0.62913498     0.44200
Cu569      Cu  0.78694575  0.02621531  0.65378321     0.42000
Cu570      Cu  0.78723425  0.45820209  0.60341643     0.43900
N571        N  0.73922272  0.45758281  0.59621374    -0.34800
N572        N  0.75754954  0.44453565  0.58761902    -0.29100
C573        C  0.75359369  0.42319996  0.56661574    -0.05200
C574        C  0.73180222  0.42331658  0.56154719     0.07100
C575        C  0.72315936  0.44544052  0.58058308     0.00900
H576        H  0.76573304  0.40922008  0.55549813     0.08500
H577        H  0.70643230  0.45186406  0.58317010     0.07600
N578        N  0.81485476  0.47983518  0.61965028    -0.36200
N579        N  0.81469442  0.00530548  0.63776952    -0.28400
C580        C  0.83500480  0.01416042  0.64359963    -0.03700
C581        C  0.84877176  0.49327988  0.62839487     0.04900
C582        C  0.83523024  0.47238851  0.61315530     0.03000
H583        H  0.83933361  0.03433606  0.65771944     0.08100
H584        H  0.83970005  0.45314535  0.59833876     0.07000
C585        C  0.02844604  0.49647295  0.62672207    -0.03500
C586        C  0.01697735  0.51605464  0.60739284    -0.09200
C587        C  0.99456465  0.51611533  0.60723126    -0.16900
C588        C  0.98309095  0.99674185  0.62665416     0.25300
C589        C  0.99427083  0.97573031  0.64498491    -0.18600
C590        C  0.01666337  0.97542010  0.64514352    -0.07500
C591        C  0.96002130  0.99694095  0.62656225    -0.13900
C592        C  0.94070367  0.99671452  0.62673317    -0.13600
C593        C  0.91764396  0.99601686  0.62712970     0.25200
C594        C  0.90638854  0.01634542  0.64574305    -0.19000
C595        C  0.88400234  0.01552367  0.64624873    -0.07500
C596        C  0.87260204  0.49419308  0.62790782    -0.03600
C597        C  0.88414831  0.47371126  0.60937241    -0.08900
C598        C  0.90653560  0.47458626  0.60891782    -0.16500
H599        H  0.02524772  0.53112235  0.59220204     0.11600
H600        H  0.98604860  0.53129058  0.59214478     0.10900
H601        H  0.98567495  0.95959255  0.65920594     0.10800
H602        H  0.02479947  0.95905999  0.65970816     0.11300
H603        H  0.91491686  0.03281036  0.65991493     0.11400
H604        H  0.87582441  0.03145563  0.66097139     0.11400
H605        H  0.87600337  0.45700259  0.59509930     0.11500
H606        H  0.91507766  0.45859781  0.59449628     0.10300
C607        C  0.37181671  0.24632299  0.62729503    -0.03500
C608        C  0.38340330  0.22629506  0.60850979    -0.09200
C609        C  0.40578852  0.22628907  0.60880821    -0.16900
C610        C  0.41696719  0.24626135  0.62783931     0.25300
C611        C  0.40564985  0.26640046  0.64652813    -0.18600
C612        C  0.38324995  0.26646936  0.64627506    -0.07500
C613        C  0.44003198  0.24598622  0.62817943    -0.13900
C614        C  0.45934923  0.24552424  0.62819270    -0.13600
C615        C  0.48241407  0.24491370  0.62787248     0.25200
C616        C  0.49351078  0.26004254  0.60624893    -0.19000
C617        C  0.51590267  0.25950483  0.60586940    -0.07500
C618        C  0.52754823  0.24368861  0.62711126    -0.03600
C619        C  0.51621781  0.22846523  0.64873631    -0.08900
C620        C  0.49381910  0.22913516  0.64911059    -0.16500
H621        H  0.37527967  0.21066904  0.59344684     0.11600
H622        H  0.41438158  0.21065981  0.59418600     0.10900
H623        H  0.41413778  0.28197511  0.66136787     0.10800
H624        H  0.37499296  0.28209810  0.66114067     0.11300
H625        H  0.48485237  0.27223769  0.58964491     0.11400
H626        H  0.52402601  0.27118324  0.58877233     0.11400
H627        H  0.52460282  0.21632219  0.66554298     0.11500
H628        H  0.48540273  0.21737001  0.66598242     0.10300
C629        C  0.37226474  0.24005799  0.87634247    -0.03500
C630        C  0.38376241  0.26187736  0.85880227    -0.09200
C631        C  0.40617473  0.26168055  0.85877822    -0.16900
C632        C  0.41750040  0.23971955  0.87624766     0.25300
C633        C  0.40627317  0.21779630  0.89366686    -0.18600
C634        C  0.38385512  0.21792473  0.89373048    -0.07500
C635        C  0.44060854  0.23989497  0.87644225    -0.13900
C636        C  0.45994872  0.24031080  0.87662321    -0.13600
C637        C  0.48304878  0.24102461  0.87670976     0.25200
C638        C  0.49406420  0.26455095  0.89315191    -0.19000
C639        C  0.51646884  0.26550576  0.89301860    -0.07500
C640        C  0.52825646  0.24289490  0.87638766    -0.03600
C641        C  0.51696547  0.21922840  0.86002425    -0.08900
C642        C  0.49457079  0.21833976  0.86020161    -0.16500
H643        H  0.37554577  0.27911458  0.84498380     0.11600
H644        H  0.41466951  0.27874314  0.84515483     0.10900
H645        H  0.41484706  0.20067889  0.90730749     0.10800
H646        H  0.37570864  0.20084119  0.90760285     0.11300
H647        H  0.48533181  0.28225704  0.90603580     0.11400
H648        H  0.52443646  0.28408899  0.90591269     0.11400
H649        H  0.52531000  0.20132194  0.84698861     0.11500
H650        H  0.48624049  0.19998270  0.84738806     0.10300
C651        C  0.02719694  0.49148646  0.87752472    -0.03500
C652        C  0.01571188  0.01406183  0.89430409    -0.09200
C653        C  0.99331064  0.01396953  0.89413115    -0.16900
C654        C  0.98200019  0.49132496  0.87736113     0.25300
C655        C  0.99327810  0.46901307  0.86026884    -0.18600
C656        C  0.01568017  0.46906244  0.86032457    -0.07500
C657        C  0.95892049  0.49116882  0.87735447    -0.13900
C658        C  0.93959447  0.49110081  0.87737553    -0.13600
C659        C  0.91651433  0.49115983  0.87736770     0.25200
C660        C  0.90524949  0.52099662  0.87048061    -0.19000
C661        C  0.88284891  0.52108331  0.87036284    -0.07500
C662        C  0.87137699  0.49131723  0.87727365    -0.03600
C663        C  0.88293887  0.96122229  0.88288730    -0.08900
C664        C  0.90534637  0.96110052  0.88275343    -0.16500
H665        H  0.02383276  0.03180560  0.90777711     0.11600
H666        H  0.98473615  0.03148894  0.90734622     0.10900
H667        H  0.98475568  0.45153316  0.84688950     0.10800
H668        H  0.02385444  0.45149226  0.84683263     0.11300
H669        H  0.91378041  0.54421882  0.86521041     0.11400
H670        H  0.87456591  0.54459409  0.86516426     0.11400
H671        H  0.87461639  0.93753133  0.88719638     0.11500
H672        H  0.91387611  0.93750760  0.88711631     0.10300
N673        N  0.14223059  0.53867095  0.41932325    -0.27400
N674        N  0.16053828  0.52550890  0.41076548    -0.35300
C675        C  0.17663032  0.53789910  0.42622983     0.00900
C676        C  0.16802315  0.56030756  0.44509162     0.07000
C677        C  0.14622483  0.56032742  0.44010274    -0.06100
H678        H  0.19336992  0.53165167  0.42351264     0.07600
H679        H  0.13411802  0.57463703  0.45101175     0.08800
Cu680      Cu  0.16290615  0.49247685  0.37780044     0.44200
Cu681      Cu  0.11251589  0.52514741  0.40360590     0.42000
Cu682      Cu  0.11293792  0.95793095  0.35319839     0.43900
N683        N  0.16075043  0.95935204  0.34511238    -0.34800
N684        N  0.14252968  0.94543855  0.33689685    -0.29100
C685        C  0.14650532  0.92390248  0.31606992    -0.05200
C686        C  0.16821128  0.92469891  0.31071880     0.07100
C687        C  0.17677158  0.94752683  0.32940152     0.00900
H688        H  0.13443649  0.90914048  0.30537104     0.08500
H689        H  0.19343983  0.95448533  0.33179557     0.07600
N690        N  0.08506964  0.97879110  0.36904735    -0.36200
N691        N  0.08487805  0.50378380  0.38726559    -0.28400
C692        C  0.06448188  0.51191490  0.39316491    -0.03700
C693        C  0.05098059  0.99112245  0.37733070     0.04900
C694        C  0.06480919  0.97036332  0.36255193     0.03000
H695        H  0.05989298  0.53162999  0.40754001     0.08100
H696        H  0.06060430  0.95072469  0.34789736     0.07000
N697        N  0.75652689  0.94261733  0.41582829    -0.27400
N698        N  0.73831359  0.95772457  0.40895248    -0.35300
C699        C  0.72260847  0.94594955  0.42514022     0.00900
C700        C  0.73136131  0.92206338  0.44282775     0.07000
C701        C  0.75284364  0.92042537  0.43628658    -0.06100
H702        H  0.70607634  0.95420000  0.42410785     0.07600
H703        H  0.76503727  0.90508862  0.44624914     0.08800
Cu704      Cu  0.73579642  0.99397345  0.37817620     0.44200
Cu705      Cu  0.78593949  0.95559753  0.39930048     0.42000
Cu706      Cu  0.78629157  0.53045411  0.35554035     0.43900
N707        N  0.73836976  0.53074554  0.34759634    -0.34800
N708        N  0.75661985  0.54491026  0.34000117    -0.29100
C709        C  0.75268858  0.56703810  0.31950194    -0.05200
C710        C  0.73099557  0.56631701  0.31371939     0.07100
C711        C  0.72239791  0.54303011  0.33185810     0.00900
H712        H  0.76483899  0.58152046  0.30887867     0.08500
H713        H  0.70580568  0.53536078  0.33339006     0.07600
N714        N  0.81390058  0.50634117  0.36958793    -0.36200
N715        N  0.81363939  0.97836318  0.38476648    -0.28400
C716        C  0.83397172  0.96840215  0.38932119    -0.03700
C717        C  0.84758252  0.99154860  0.37674524     0.04900
C718        C  0.83429639  0.51515420  0.36443971     0.03000
H719        H  0.83843945  0.94622912  0.40133268     0.08100
H720        H  0.83890550  0.53691389  0.35212077     0.07000
O721        O  0.22865824  0.86010038  0.22418351    -0.73100
O722        O  0.19785255  0.91499638  0.28131671    -0.74000
O723        O  0.22856469  0.86108911  0.28183114    -0.62700
O724        O  0.19812363  0.91391912  0.22282561    -0.71100
O725        O  0.17149469  0.87623330  0.22324062    -0.70600
O726        O  0.20194306  0.82340427  0.28223395    -0.61900
O727        O  0.17124809  0.87726505  0.28077503    -0.74400
O728        O  0.20202344  0.82241883  0.22372601    -0.73200
Cu729      Cu  0.21420153  0.88891413  0.25255206     1.04600
Cu730      Cu  0.18578811  0.84844155  0.25252521     1.04300
C731        C  0.22011067  0.83274525  0.21486385     0.93100
C732        C  0.17966689  0.90477477  0.28996628     0.92300
C733        C  0.22004862  0.83384038  0.29124835     0.84400
C734        C  0.18007145  0.90338347  0.21373792     0.90700
N735        N  0.25690263  0.79177521  0.33837310    -0.27400
N736        N  0.23865470  0.77711718  0.34538955    -0.35300
C737        C  0.22272085  0.78998371  0.32987827     0.00900
C738        C  0.23131759  0.81416958  0.31249464     0.07000
C739        C  0.25298809  0.81479322  0.31848543    -0.06100
H740        H  0.20613458  0.78219161  0.33111345     0.07600
H741        H  0.26513233  0.82994496  0.30845837     0.08800
Cu742      Cu  0.23619880  0.74011775  0.37551980     0.44200
Cu743      Cu  0.28658826  0.77729007  0.35406732     0.42000
Cu744      Cu  0.28658351  0.70451480  0.39960038     0.43900
N745        N  0.23854703  0.70404144  0.40640384    -0.34800
N746        N  0.25683514  0.69006679  0.41442404    -0.29100
C747        C  0.25293692  0.66810093  0.43497038    -0.05200
C748        C  0.23123898  0.66877070  0.44039048     0.07100
C749        C  0.22258244  0.69179740  0.42194069     0.00900
H750        H  0.26512668  0.65388568  0.44595121     0.08500
H751        H  0.20597453  0.69944572  0.42015406     0.07600
N752        N  0.31436922  0.72717151  0.38509026    -0.36200
N753        N  0.31437789  0.75414390  0.36878284    -0.28400
C754        C  0.33475284  0.76276253  0.36326835    -0.03700
C755        C  0.34837763  0.74015745  0.37679210     0.04900
C756        C  0.33473094  0.71796359  0.39044977     0.03000
H757        H  0.33918227  0.78402372  0.35032901     0.08100
H758        H  0.33913566  0.69654729  0.40332225     0.07000
N759        N  0.64346229  0.69928614  0.33508535    -0.27400
N760        N  0.66194340  0.71243788  0.34319848    -0.35300
C761        C  0.67772990  0.69941696  0.32772456     0.00900
C762        C  0.66870906  0.67667273  0.30935112     0.07000
C763        C  0.64702344  0.67708996  0.31460810    -0.06100
H764        H  0.69453313  0.70553377  0.33006229     0.07600
H765        H  0.63468089  0.66272834  0.30407414     0.08800
Cu766      Cu  0.66494121  0.74627816  0.37557001     0.44200
Cu767      Cu  0.61394778  0.71296045  0.35079736     0.42000
Cu768      Cu  0.61390234  0.77806258  0.40171049     0.43900
N769        N  0.66209297  0.77939631  0.40840942    -0.34800
N770        N  0.64363218  0.79196527  0.41703475    -0.29100
C771        C  0.64733204  0.81324758  0.43811806    -0.05200
C772        C  0.66907521  0.81360556  0.44325511     0.07100
C773        C  0.67799632  0.79185638  0.42414694     0.00900
H774        H  0.63502888  0.82675464  0.44930919     0.08500
H775        H  0.69478661  0.78578809  0.42166973     0.07600
N776        N  0.58598957  0.75721675  0.38583210    -0.36200
N777        N  0.58605121  0.73287221  0.36711360    -0.28400
C778        C  0.56574076  0.72426984  0.36106848    -0.03700
C779        C  0.55205787  0.74413849  0.37684104     0.04900
C780        C  0.56561736  0.76475529  0.39231823     0.03000
H781        H  0.56141642  0.70481603  0.34631718     0.08100
H782        H  0.56115387  0.78387491  0.40724202     0.07000
O783        O  0.72867589  0.87626564  0.03141352    -0.73100
O784        O  0.69824796  0.82234369  0.47366319    -0.74000
O785        O  0.72887855  0.87565472  0.47390869    -0.62700
O786        O  0.69777172  0.82313594  0.03229123    -0.71100
O787        O  0.67127535  0.86118561  0.03157917    -0.70600
O788        O  0.70237704  0.91369879  0.47341326    -0.61900
O789        O  0.67169211  0.86032139  0.47392238    -0.74400
O790        O  0.70221231  0.91438987  0.03178473    -0.73200
Cu791      Cu  0.71404494  0.84800338  0.00287274     1.04600
Cu792      Cu  0.68578332  0.88890605  0.00263451     1.04300
C793        C  0.72030552  0.90371871  0.04070735     0.93100
C794        C  0.68020496  0.83296635  0.46461410     0.92300
C795        C  0.72034933  0.90294427  0.46439685     0.84400
C796        C  0.67972349  0.83384930  0.04110703     0.90700
N797        N  0.25657225  0.79255715  0.16690098    -0.27400
N798        N  0.23832842  0.77817330  0.15929418    -0.35300
C799        C  0.22250804  0.78995881  0.17536148     0.00900
C800        C  0.23124724  0.81314622  0.19365077     0.07000
C801        C  0.25281712  0.81429943  0.18764673    -0.06100
H802        H  0.20587687  0.78249471  0.17363957     0.07600
H803        H  0.26499004  0.82922304  0.19800338     0.08800
Cu804      Cu  0.23592325  0.74365061  0.12715119     0.44200
Cu805      Cu  0.28608618  0.77987527  0.15064545     0.42000
Cu806      Cu  0.28655988  0.70931704  0.10318749     0.43900
N807        N  0.23865995  0.70946503  0.09484567    -0.34800
N808        N  0.25702903  0.69574251  0.08707022    -0.29100
C809        C  0.25334056  0.67397533  0.06627340    -0.05200
C810        C  0.23168646  0.67447532  0.06040979     0.07100
C811        C  0.22283554  0.69726865  0.07882582     0.00900
H812        H  0.26559610  0.65947510  0.05580029     0.08500
H813        H  0.20611561  0.70413220  0.08070791     0.07600
N814        N  0.31410725  0.73200228  0.11848040    -0.36200
N815        N  0.31392646  0.75820056  0.13558105    -0.28400
C816        C  0.33421258  0.76715995  0.14146193    -0.03700
C817        C  0.34792505  0.74564194  0.12725191     0.04900
C818        C  0.33451435  0.72369077  0.11286765     0.03000
H819        H  0.33855238  0.78798159  0.15497866     0.08100
H820        H  0.33914291  0.70295720  0.09945951     0.07000
N821        N  0.64283377  0.79211358  0.08767409    -0.27400
N822        N  0.66115543  0.77818954  0.09562644    -0.35300
C823        C  0.67713210  0.79104663  0.08042797     0.00900
C824        C  0.66845615  0.81444733  0.06229295     0.07000
C825        C  0.64672123  0.81465797  0.06751771    -0.06100
H826        H  0.69379607  0.78378348  0.08238350     0.07600
H827        H  0.63452843  0.82917418  0.05679635     0.08800
Cu828      Cu  0.66360912  0.74204088  0.12645999     0.44200
Cu829      Cu  0.61312534  0.77745179  0.10252184     0.42000
Cu830      Cu  0.61310932  0.70700414  0.15005647     0.43900
N831        N  0.66115966  0.70603462  0.15735998    -0.34800
N832        N  0.64284499  0.69228649  0.16520617    -0.29100
C833        C  0.64674315  0.67000278  0.18560172    -0.05200
C834        C  0.66847847  0.67018645  0.19108001     0.07100
C835        C  0.67714358  0.69330637  0.17285491     0.00900
H836        H  0.63454811  0.65579073  0.19637120     0.08500
H837        H  0.69379117  0.70059268  0.17112611     0.07600
N838        N  0.58532376  0.72932040  0.13477733    -0.36200
N839        N  0.58533014  0.75540516  0.11758867    -0.28400
C840        C  0.56497109  0.76428542  0.11191730    -0.03700
C841        C  0.55133696  0.74280157  0.12629799     0.04900
C842        C  0.56496263  0.72094904  0.14057157     0.03000
H843        H  0.56056857  0.78505948  0.09839235     0.08100
H844        H  0.56055272  0.70044432  0.15427685     0.07000
O845        O  0.67112041  0.62463380  0.22298152    -0.73100
O846        O  0.70162147  0.57423293  0.28325551    -0.74000
O847        O  0.67113013  0.62816935  0.28045942    -0.62700
O848        O  0.70167301  0.57071497  0.22482430    -0.71100
O849        O  0.72832907  0.60837342  0.22436397    -0.70600
O850        O  0.69789783  0.66562366  0.27981282    -0.61900
O851        O  0.72831362  0.61175134  0.28174003    -0.74400
O852        O  0.69783187  0.66212178  0.22149576    -0.73200
Cu853      Cu  0.68547290  0.59803469  0.25293171     1.04600
Cu854      Cu  0.71397851  0.63833976  0.25179575     1.04300
C855        C  0.67970598  0.65138569  0.21280376     0.93100
C856        C  0.71974523  0.58500372  0.29194137     0.92300
C857        C  0.67976657  0.65588929  0.28890134     0.84400
C858        C  0.71983326  0.58060330  0.21586319     0.90700
O859        O  0.17163132  0.61175896  0.03120354    -0.73100
O860        O  0.20213065  0.66172733  0.47100193    -0.74000
O861        O  0.17124844  0.60863763  0.47402941    -0.62700
O862        O  0.20246126  0.66494639  0.03008061    -0.71100
O863        O  0.22892192  0.62682344  0.03056678    -0.70600
O864        O  0.19773945  0.57056146  0.47452395    -0.61900
O865        O  0.22862184  0.62370528  0.47262926    -0.74400
O866        O  0.19806644  0.57362283  0.03251106    -0.73200
Cu867      Cu  0.18602264  0.63847910  0.00157564     1.04600
Cu868      Cu  0.21424571  0.59753504  0.00254429     1.04300
C869        C  0.18008398  0.58470806  0.04124157     0.93100
C870        C  0.22009711  0.65051530  0.46230428     0.92300
C871        C  0.17955609  0.58071926  0.46553140     0.84400
C872        C  0.22050479  0.65454963  0.03932875     0.90700
N873        N  0.14343248  0.54547056  0.08945076    -0.27400
N874        N  0.16166473  0.53098590  0.09709090    -0.35300
C875        C  0.17754863  0.54280390  0.08120862     0.00900
C876        C  0.16890714  0.56611215  0.06295914     0.07000
C877        C  0.14728986  0.56732947  0.06881385    -0.06100
H878        H  0.19412331  0.53490824  0.08278573     0.07600
H879        H  0.13513171  0.58206329  0.05821834     0.08800
Cu880      Cu  0.16418959  0.99486984  0.12779159     0.44200
Cu881      Cu  0.11379788  0.53212581  0.10518984     0.42000
Cu882      Cu  0.11385062  0.95904378  0.15034257     0.43900
N883        N  0.16176025  0.95882213  0.15864340    -0.34800
N884        N  0.14346649  0.94459706  0.16599733    -0.29100
C885        C  0.14728159  0.92215671  0.18630153    -0.05200
C886        C  0.16893798  0.92273665  0.19224769     0.07100
C887        C  0.17765286  0.94626541  0.17438727     0.00900
H888        H  0.13507719  0.90745680  0.19663024     0.08500
H889        H  0.19427864  0.95378535  0.17296395     0.07600
N890        N  0.08613085  0.98238537  0.13587278    -0.36200
N891        N  0.08607329  0.50943124  0.11977640    -0.28400
C892        C  0.06572502  0.51860616  0.11435799    -0.03700
C893        C  0.05214170  0.99628397  0.12785912     0.04900
C894        C  0.06577303  0.97361170  0.14127985     0.03000
H895        H  0.06135029  0.54004787  0.10149757     0.08100
H896        H  0.06137083  0.95217835  0.15405562     0.07000
N897        N  0.75695312  0.53878123  0.16979979    -0.27400
N898        N  0.73868991  0.52523989  0.16132849    -0.35300
C899        C  0.72262152  0.53743466  0.17677001     0.00900
C900        C  0.73122788  0.56008187  0.19552825     0.07000
C901        C  0.75296821  0.56044377  0.19050835    -0.06100
H902        H  0.70590984  0.53090437  0.17409617     0.07600
H903        H  0.76504958  0.57505399  0.20131807     0.08800
Cu904      Cu  0.73658047  0.98999175  0.12970018     0.44200
Cu905      Cu  0.78664340  0.52592841  0.15408560     0.42000
Cu906      Cu  0.78698669  0.95710184  0.10452123     0.43900
N907        N  0.73901451  0.95685820  0.09689702    -0.34800
N908        N  0.75734073  0.94363205  0.08847759    -0.29100
C909        C  0.75343788  0.92252468  0.06731257    -0.05200
C910        C  0.73168863  0.92300596  0.06195092     0.07100
C911        C  0.72300984  0.94506389  0.08100358     0.00900
H912        H  0.76559252  0.90849555  0.05626167     0.08500
H913        H  0.70629983  0.95172679  0.08339070     0.07600
N914        N  0.81460617  0.97937816  0.12021325    -0.36200
N915        N  0.81442560  0.50509981  0.13805646    -0.28400
C916        C  0.83473121  0.51381949  0.14407256    -0.03700
C917        C  0.84851613  0.99310413  0.12871477     0.04900
C918        C  0.83499943  0.97130386  0.11427774     0.03000
H919        H  0.83905039  0.53385031  0.15833298     0.08100
H920        H  0.83950802  0.95102042  0.10038615     0.07000
C921        C  0.02828296  0.99637429  0.12776954    -0.03500
C922        C  0.01671475  0.01996432  0.11162175    -0.09200
C923        C  0.99430282  0.01991756  0.11148953    -0.16900
C924        C  0.98297085  0.49652225  0.12728236     0.25300
C925        C  0.99422153  0.47084774  0.14124132    -0.18600
C926        C  0.01662659  0.47065333  0.14134570    -0.07500
C927        C  0.95987249  0.49670637  0.12734254    -0.13900
C928        C  0.94053793  0.49650076  0.12756571    -0.13600
C929        C  0.91744883  0.49580391  0.12789266     0.25200
C930        C  0.90615705  0.51467888  0.14743142    -0.19000
C931        C  0.88375646  0.51386212  0.14781782    -0.07500
C932        C  0.87234911  0.99386579  0.12837352    -0.03600
C933        C  0.88392513  0.97312665  0.11005201    -0.08900
C934        C  0.90632116  0.97392058  0.10970932    -0.16500
H935        H  0.02486403  0.03846421  0.09895720     0.11600
H936        H  0.98574628  0.03826703  0.09889157     0.10900
H937        H  0.98567050  0.45095160  0.15209232     0.10800
H938        H  0.02476512  0.45039853  0.15234016     0.11300
H939        H  0.91466717  0.53000104  0.16241522     0.11400
H940        H  0.87554201  0.52859738  0.16328462     0.11400
H941        H  0.87578764  0.95633806  0.09582754     0.11500
H942        H  0.91488896  0.95774907  0.09544298     0.10300
C943        C  0.37169354  0.74593262  0.12744556    -0.03500
C944        C  0.38326357  0.72859198  0.10705042    -0.09200
C945        C  0.40565335  0.72874151  0.10727776    -0.16900
C946        C  0.41682670  0.74611827  0.12788951     0.25300
C947        C  0.40549050  0.76348155  0.14826082    -0.18600
C948        C  0.38308438  0.76345532  0.14803913    -0.07500
C949        C  0.43990247  0.74601332  0.12810590    -0.13900
C950        C  0.45922535  0.74559664  0.12797394    -0.13600
C951        C  0.48229785  0.74486785  0.12754538     0.25200
C952        C  0.49353539  0.76672668  0.11010376    -0.19000
C953        C  0.51592985  0.76601531  0.10961924    -0.07500
C954        C  0.52748622  0.74337558  0.12662067    -0.03600
C955        C  0.51596534  0.72141648  0.14403026    -0.08900
C956        C  0.49356911  0.72219212  0.14446907    -0.16500
H957        H  0.37508555  0.71513294  0.09073981     0.11600
H958        H  0.41425287  0.71528367  0.09135700     0.10900
H959        H  0.41396516  0.77697764  0.16435648     0.10800
H960        H  0.37475527  0.77683232  0.16418417     0.11300
H961        H  0.48498514  0.78434568  0.09684750     0.11400
H962        H  0.52407635  0.78322164  0.09584450     0.11400
H963        H  0.52414415  0.70367218  0.15747170     0.11500
H964        H  0.48504568  0.70510519  0.15804736     0.10300
C965        C  0.37224584  0.73989298  0.37673413    -0.03500
C966        C  0.38375602  0.76239457  0.35976128    -0.09200
C967        C  0.40616523  0.76246344  0.35997055    -0.16900
C968        C  0.41748198  0.74008354  0.37710062     0.25300
C969        C  0.40625136  0.71743301  0.39391656    -0.18600
C970        C  0.38383180  0.71729798  0.39375011    -0.07500
C971        C  0.44058419  0.74051745  0.37749455    -0.13900
C972        C  0.45992034  0.74109095  0.37768122    -0.13600
C973        C  0.48301584  0.74179386  0.37759986     0.25200
C974        C  0.49417679  0.76276569  0.39597708    -0.19000
C975        C  0.51658392  0.76356223  0.39577248    -0.07500
C976        C  0.52821752  0.74334764  0.37713675    -0.03600
C977        C  0.51677961  0.72232587  0.35876495    -0.08900
C978        C  0.49438732  0.72158682  0.35901990    -0.16500
H979        H  0.37555730  0.78001455  0.34623943     0.11600
H980        H  0.41466544  0.78006816  0.34679665     0.10900
H981        H  0.41482130  0.69995133  0.40726402     0.10800
H982        H  0.37568373  0.69963725  0.40715318     0.11300
H983        H  0.48556020  0.77853609  0.41047565     0.11400
H984        H  0.52468084  0.77999060  0.41030108     0.11400
H985        H  0.52500916  0.70646043  0.34404558     0.11500
H986        H  0.48593933  0.70526849  0.34466302     0.10300
C987        C  0.02715127  0.99090501  0.37679171    -0.03500
C988        C  0.01560793  0.50661154  0.39858141    -0.09200
C989        C  0.99320968  0.50624265  0.39833020    -0.16900
C990        C  0.98196927  0.99022239  0.37609505     0.25300
C991        C  0.99347098  0.96490159  0.36218568    -0.18600
C992        C  0.01587362  0.96521067  0.36250687    -0.07500
C993        C  0.95889166  0.98980005  0.37591626    -0.13900
C994        C  0.93956611  0.98973955  0.37593609    -0.13600
C995        C  0.91648834  0.99009690  0.37606123     0.25200
C996        C  0.90537362  0.02025277  0.36969530    -0.19000
C997        C  0.88297819  0.02071519  0.36982910    -0.07500
C998        C  0.87135259  0.99100171  0.37646064    -0.03600
C999        C  0.88285662  0.46077848  0.38288359    -0.08900
C1000       C  0.90526394  0.46041740  0.38269981    -0.16500
H1001       H  0.02375278  0.51850119  0.41568315     0.11600
H1002       H  0.98455353  0.51798754  0.41503618     0.10900
H1003       H  0.98512570  0.94483656  0.35114655     0.10800
H1004       H  0.02424884  0.94511363  0.35170574     0.11300
H1005       H  0.91402016  0.04344968  0.36466442     0.11400
H1006       H  0.87482768  0.04447858  0.36504793     0.11400
H1007       H  0.87445368  0.43722439  0.38739810     0.11500
H1008       H  0.91370675  0.43679574  0.38723723     0.10300
N1009       N  0.14241808  0.53966085  0.91839519    -0.27400
N1010       N  0.16072289  0.52623109  0.91010051    -0.35300
C1011       C  0.17677996  0.53864050  0.92561472     0.00900
C1012       C  0.16815374  0.56131894  0.94425993     0.07000
C1013       C  0.14637999  0.56149703  0.93906828    -0.06100
H1014       H  0.19349846  0.53206076  0.92318295     0.07600
H1015       H  0.13425453  0.57590125  0.94986421     0.08800
Cu1016     Cu  0.16304770  0.49245688  0.87763566     0.44200
Cu1017     Cu  0.11273455  0.52590271  0.90266147     0.42000
Cu1018     Cu  0.11288945  0.95810465  0.85262623     0.43900
N1019       N  0.16078518  0.95916249  0.84481003    -0.34800
N1020       N  0.14253675  0.94528198  0.83663265    -0.29100
C1021       C  0.14649633  0.92351434  0.81595225    -0.05200
C1022       C  0.16820840  0.92414452  0.81065408     0.07100
C1023       C  0.17679567  0.94707828  0.82921856     0.00900
H1024       H  0.13440450  0.90879330  0.80525950     0.08500
H1025       H  0.19346955  0.95403147  0.83155730     0.07600
N1026       N  0.08513700  0.97900187  0.86878639    -0.36200
N1027       N  0.08501216  0.50424714  0.88675716    -0.28400
C1028       C  0.06465168  0.51261537  0.89261582    -0.03700
C1029       C  0.05113957  0.99147608  0.87762541     0.04900
C1030       C  0.06479966  0.97076636  0.86252021     0.03000
H1031       H  0.06023871  0.53269012  0.90674498     0.08100
H1032       H  0.06043980  0.95116073  0.84791454     0.07000
N1033       N  0.75653043  0.94286445  0.91624446    -0.27400
N1034       N  0.73833949  0.95786958  0.90910533    -0.35300
C1035       C  0.72251178  0.94597502  0.92504281     0.00900
C1036       C  0.73114872  0.92210538  0.94282759     0.07000
C1037       C  0.75269881  0.92061475  0.93662022    -0.06100
H1038       H  0.70597070  0.95412908  0.92376783     0.07600
H1039       H  0.76483186  0.90533271  0.94675635     0.08800
Cu1040     Cu  0.73588209  0.99403266  0.87824197     0.44200
Cu1041     Cu  0.78610758  0.95582747  0.90010496     0.42000
Cu1042     Cu  0.78595094  0.52919842  0.85550146     0.43900
N1043       N  0.73806763  0.52970031  0.84733935    -0.34800
N1044       N  0.75637437  0.54369519  0.83977810    -0.29100
C1045       C  0.75256931  0.56582321  0.81925055    -0.05200
C1046       C  0.73089252  0.56529890  0.81340509     0.07100
C1047       C  0.72216795  0.54210626  0.83153527     0.00900
H1048       H  0.76479014  0.58022932  0.80869382     0.08500
H1049       H  0.70553617  0.53465421  0.83305949     0.07600
N1050       N  0.81368214  0.50567656  0.86970782    -0.36200
N1051       N  0.81382740  0.97833343  0.88529900    -0.28400
C1052       C  0.83419421  0.96873768  0.89015316    -0.03700
C1053       C  0.84773378  0.99169144  0.87724131     0.04900
C1054       C  0.83403177  0.51457376  0.86437497     0.03000
H1055       H  0.83874957  0.94699620  0.90261051     0.08100
H1056       H  0.83852651  0.53609450  0.85172696     0.07000
O1057       O  0.22863131  0.85998871  0.72398057    -0.73100
O1058       O  0.19779829  0.91456004  0.78120710    -0.74000
O1059       O  0.22857633  0.86085863  0.78159464    -0.62700
O1060       O  0.19799535  0.91365170  0.72276444    -0.71100
O1061       O  0.17142763  0.87585018  0.72314205    -0.70600
O1062       O  0.20200550  0.82307684  0.78205240    -0.61900
O1063       O  0.17122948  0.87675742  0.78066509    -0.74400
O1064       O  0.20207007  0.82217054  0.72352896    -0.73200
Cu1065     Cu  0.21414897  0.88865288  0.75239388     1.04600
Cu1066     Cu  0.18579612  0.84806190  0.75237005     1.04300
C1067       C  0.22013496  0.83259528  0.71466408     0.93100
C1068       C  0.17963828  0.90426235  0.78987677     0.92300
C1069       C  0.22009351  0.83360831  0.79104944     0.84400
C1070       C  0.17994322  0.90308582  0.71370563     0.90700
N1071       N  0.25700926  0.79195548  0.83825749    -0.27400
N1072       N  0.23874737  0.77765951  0.84566528    -0.35300
C1073       C  0.22277653  0.79038212  0.83013590     0.00900
C1074       C  0.23138307  0.81409662  0.81234939     0.07000
C1075       C  0.25308248  0.81460028  0.81811481    -0.06100
H1076       H  0.20615941  0.78284837  0.83165686     0.07600
H1077       H  0.26523039  0.82942293  0.80778790     0.08800
Cu1078     Cu  0.23637687  0.74130776  0.87632877     0.44200
Cu1079     Cu  0.28670072  0.77750476  0.85380787     0.42000
Cu1080     Cu  0.28675806  0.70536786  0.90007887     0.43900
N1081       N  0.23876433  0.70531433  0.90729831    -0.34800
N1082       N  0.25703664  0.69116263  0.91517941    -0.29100
C1083       C  0.25312940  0.66906485  0.93564327    -0.05200
C1084       C  0.23144053  0.66982556  0.94115185     0.07100
C1085       C  0.22280781  0.69305773  0.92284373     0.00900
H1086       H  0.26529964  0.65459423  0.94644486     0.08500
H1087       H  0.20620220  0.70072641  0.92108295     0.07600
N1088       N  0.31449545  0.72786033  0.88522750    -0.36200
N1089       N  0.31447016  0.75457127  0.86865015    -0.28400
C1090       C  0.33482476  0.76317118  0.86302345    -0.03700
C1091       C  0.34848018  0.74083327  0.87676318     0.04900
C1092       C  0.33486909  0.71880604  0.89065376     0.03000
H1093       H  0.33921161  0.78422124  0.84984435     0.08100
H1094       H  0.33929950  0.69763027  0.90376038     0.07000
N1095       N  0.64366474  0.69909062  0.83504916    -0.27400
N1096       N  0.66211701  0.71236417  0.84314344    -0.35300
C1097       C  0.67794102  0.69924893  0.82776001     0.00900
C1098       C  0.66896785  0.67631833  0.80947259     0.07000
C1099       C  0.64727646  0.67673815  0.81469379    -0.06100
H1100       H  0.69473154  0.70546979  0.83006925     0.07600
H1101       H  0.63495528  0.66230595  0.80418067     0.08800
Cu1102     Cu  0.66493012  0.74653624  0.87538980     0.44200
Cu1103     Cu  0.61409857  0.71286820  0.85057020     0.42000
Cu1104     Cu  0.61377559  0.77879614  0.90084183     0.43900
N1105       N  0.66188336  0.77968880  0.90824921    -0.34800
N1106       N  0.64339342  0.79243726  0.91660853    -0.29100
C1107       C  0.64696849  0.81363367  0.93778837    -0.05200
C1108       C  0.66866286  0.81376664  0.94327134     0.07100
C1109       C  0.67767744  0.79196137  0.92426230     0.00900
H1110       H  0.63461017  0.82726407  0.94878560     0.08500
H1111       H  0.69446979  0.78575881  0.92202296     0.07600
N1112       N  0.58597666  0.75748497  0.88509999    -0.36200
N1113       N  0.58612091  0.73277777  0.86668670    -0.28400
C1114       C  0.56583822  0.72376896  0.86086252    -0.03700
C1115       C  0.55210060  0.74375128  0.87646802     0.04900
C1116       C  0.56559100  0.76487054  0.89159606     0.03000
H1117       H  0.56156533  0.70409407  0.84627378     0.08100
H1118       H  0.56108180  0.78405963  0.90643994     0.07000
O1119       O  0.72904448  0.87592147  0.53151076    -0.73100
O1120       O  0.69774810  0.82251211  0.97381017    -0.74000
O1121       O  0.72847314  0.87569129  0.97385916    -0.62700
O1122       O  0.69821217  0.82259372  0.53213708    -0.71100
O1123       O  0.67166383  0.86055355  0.53143420    -0.70600
O1124       O  0.70201848  0.91381574  0.97321729    -0.61900
O1125       O  0.67121671  0.86052840  0.97397277    -0.74400
O1126       O  0.70249233  0.91388773  0.53197006    -0.73200
Cu1127     Cu  0.71448876  0.84773472  0.50283629     1.04600
Cu1128     Cu  0.68616787  0.88853778  0.50269289     1.04300
C1129       C  0.72060101  0.90328362  0.54087591     0.93100
C1130       C  0.67972009  0.83313042  0.96471318     0.92300
C1131       C  0.72000433  0.90299198  0.96428854     0.84400
C1132       C  0.68010318  0.83316517  0.54086708     0.90700
N1133       N  0.25671897  0.79250462  0.66682531    -0.27400
N1134       N  0.23847989  0.77824778  0.65904150    -0.35300
C1135       C  0.22261360  0.79000733  0.67504583     0.00900
C1136       C  0.23131837  0.81305543  0.69346817     0.07000
C1137       C  0.25291411  0.81414881  0.68761821    -0.06100
H1138       H  0.20597388  0.78264576  0.67317446     0.07600
H1139       H  0.26506826  0.82896817  0.69810628     0.08800
Cu1140     Cu  0.23610843  0.74403551  0.62669086     0.44200
Cu1141     Cu  0.28629285  0.77984172  0.65073794     0.42000
Cu1142     Cu  0.28677566  0.71001099  0.60266266     0.43900
N1143       N  0.23890321  0.71027266  0.59411814    -0.34800
N1144       N  0.25729479  0.69669973  0.58626804    -0.29100
C1145       C  0.25363517  0.67500476  0.56541509    -0.05200
C1146       C  0.23197254  0.67539006  0.55960269     0.07100
C1147       C  0.22308944  0.69805100  0.57809572     0.00900
H1148       H  0.26589985  0.66050130  0.55496237     0.08500
H1149       H  0.20634339  0.70468556  0.58010827     0.07600
N1150       N  0.31431754  0.73200611  0.61858725    -0.36200
N1151       N  0.31414730  0.75814302  0.63574126    -0.28400
C1152       C  0.33443701  0.76691724  0.64177608    -0.03700
C1153       C  0.34815515  0.74524109  0.62770261     0.04900
C1154       C  0.33471756  0.72343167  0.61320548     0.03000
H1155       H  0.33876125  0.78737344  0.65565072     0.08100
H1156       H  0.33930583  0.70305759  0.59943217     0.07000
N1157       N  0.64293583  0.79127296  0.58696492    -0.27400
N1158       N  0.66124270  0.77767946  0.59533376    -0.35300
C1159       C  0.67731564  0.79049876  0.58027703     0.00900
C1160       C  0.66871646  0.81357575  0.56182918     0.07000
C1161       C  0.64692883  0.81359568  0.56669267    -0.06100
H1162       H  0.69400223  0.78355742  0.58263658     0.07600
H1163       H  0.63478969  0.82794616  0.55573204     0.08800
Cu1164     Cu  0.66360531  0.74229475  0.62671347     0.44200
Cu1165     Cu  0.61314052  0.77681077  0.60167552     0.42000
Cu1166     Cu  0.61314638  0.70815770  0.65095364     0.43900
N1167       N  0.66120899  0.70658584  0.65781164    -0.34800
N1168       N  0.64288525  0.69304945  0.66584208    -0.29100
C1169       C  0.64681963  0.67066499  0.68615430    -0.05200
C1170       C  0.66859343  0.67058632  0.69139427     0.07100
C1171       C  0.67723968  0.69365472  0.67311895     0.00900
H1172       H  0.63463637  0.65653388  0.69701305     0.08500
H1173       H  0.69391259  0.70069930  0.67117874     0.07600
N1174       N  0.58537510  0.73042506  0.63558677    -0.36200
N1175       N  0.58535793  0.75551986  0.61746103    -0.28400
C1176       C  0.56498321  0.76412766  0.61156835    -0.03700
C1177       C  0.55144642  0.74361986  0.62687822     0.04900
C1178       C  0.56502251  0.72259994  0.64190482     0.03000
H1179       H  0.56043272  0.78416271  0.59740568     0.08100
H1180       H  0.56050829  0.70277360  0.65619539     0.07000
O1181       O  0.67125651  0.62471820  0.72296300    -0.73100
O1182       O  0.70160453  0.57365592  0.78292278    -0.74000
O1183       O  0.67131545  0.62789475  0.78044106    -0.62700
O1184       O  0.70170136  0.57056413  0.72451116    -0.71100
O1185       O  0.72845149  0.60805036  0.72421095    -0.70600
O1186       O  0.69817830  0.66517093  0.77994149    -0.61900
O1187       O  0.72841462  0.61097293  0.78160185    -0.74400
O1188       O  0.69805180  0.66206084  0.72159416    -0.73200
Cu1189     Cu  0.68555504  0.59781739  0.75274531     1.04600
Cu1190     Cu  0.71416664  0.63793284  0.75177808     1.04300
C1191       C  0.67987411  0.65151510  0.71291804     0.93100
C1192       C  0.71975060  0.58421878  0.79167360     0.92300
C1193       C  0.68001917  0.65551551  0.78899554     0.84400
C1194       C  0.71991799  0.58033982  0.71564681     0.90700
O1195       O  0.17191979  0.61221488  0.53146720    -0.73100
O1196       O  0.20222674  0.66231949  0.97154497    -0.74000
O1197       O  0.17128337  0.60922974  0.97368186    -0.62700
O1198       O  0.20267792  0.66540111  0.52949451    -0.71100
O1199       O  0.22915944  0.62731650  0.53020094    -0.70600
O1200       O  0.19773582  0.57108734  0.97402421    -0.61900
O1201       O  0.22868162  0.62422611  0.97294122    -0.74400
O1202       O  0.19836685  0.57409967  0.53293363    -0.73200
Cu1203     Cu  0.18611570  0.63841206  0.50143775     1.04600
Cu1204     Cu  0.21437008  0.59752123  0.50261513     1.04300
C1205       C  0.18041942  0.58530521  0.54167289     0.93100
C1206       C  0.22022531  0.65123430  0.96284779     0.92300
C1207       C  0.17961256  0.58143269  0.96496660     0.84400
C1208       C  0.22076020  0.65517095  0.53873301     0.90700
N1209       N  0.14374798  0.54609137  0.58977352    -0.27400
N1210       N  0.16193204  0.53133817  0.59726436    -0.35300
C1211       C  0.17785681  0.54326966  0.58151391     0.00900
C1212       C  0.16928254  0.56691232  0.56349979     0.07000
C1213       C  0.14767438  0.56823079  0.56936124    -0.06100
H1214       H  0.19438742  0.53509377  0.58292698     0.07600
H1215       H  0.13554958  0.58309697  0.55882188     0.08800
Cu1216     Cu  0.16396862  0.99511228  0.62827822     0.44200
Cu1217     Cu  0.11404491  0.53254126  0.60513665     0.42000
Cu1218     Cu  0.11361441  0.95905302  0.65061225     0.43900
N1219       N  0.16151187  0.95889250  0.65896026    -0.34800
N1220       N  0.14322743  0.94461288  0.66628478    -0.29100
C1221       C  0.14707697  0.92200975  0.68646641    -0.05200
C1222       C  0.16874742  0.92253931  0.69233974     0.07100
C1223       C  0.17742894  0.94621005  0.67458506     0.00900
H1224       H  0.13489375  0.90721172  0.69674718     0.08500
H1225       H  0.19405248  0.95373831  0.67314693     0.07600
N1226       N  0.08597688  0.98215947  0.63565462    -0.36200
N1227       N  0.08624203  0.50968715  0.61927147    -0.28400
C1228       C  0.06591075  0.51885300  0.61371879    -0.03700
C1229       C  0.05206806  0.99592529  0.62713901     0.04900
C1230       C  0.06558701  0.97340369  0.64087452     0.03000
H1231       H  0.06150471  0.54049447  0.60107479     0.08100
H1232       H  0.06106804  0.95206525  0.65369072     0.07000
N1233       N  0.75724528  0.53773563  0.67026503    -0.27400
N1234       N  0.73900097  0.52419153  0.66172187    -0.35300
C1235       C  0.72285501  0.53675800  0.67684241     0.00900
C1236       C  0.73138241  0.55965885  0.69546050     0.07000
C1237       C  0.75316589  0.55977157  0.69069759    -0.06100
H1238       H  0.70614675  0.53027946  0.67405286     0.07600
H1239       H  0.76521116  0.57445289  0.70151164     0.08800
Cu1240     Cu  0.73679982  0.99055222  0.62930563     0.44200
Cu1241     Cu  0.78701263  0.52462267  0.65485579     0.42000
Cu1242     Cu  0.78720989  0.95803415  0.60389571     0.43900
N1243       N  0.73923532  0.95702560  0.59673455    -0.34800
N1244       N  0.75758748  0.94396678  0.58824725    -0.29100
C1245       C  0.75370734  0.92254467  0.56728317    -0.05200
C1246       C  0.73193629  0.92264042  0.56210982     0.07100
C1247       C  0.72322211  0.94479460  0.58107088     0.00900
H1248       H  0.76589393  0.90864293  0.55618788     0.08500
H1249       H  0.70649316  0.95130773  0.58349885     0.07600
N1250       N  0.81479089  0.98004172  0.61980225    -0.36200
N1251       N  0.81476820  0.50442145  0.63820910    -0.28400
C1252       C  0.83508369  0.51324254  0.64407351    -0.03700
C1253       C  0.84868830  0.99351270  0.62849840     0.04900
C1254       C  0.83516585  0.97218007  0.61364590     0.03000
H1255       H  0.83941289  0.53290079  0.65865091     0.08100
H1256       H  0.83964831  0.95234423  0.59934052     0.07000
C1257       C  0.02825457  0.99618992  0.62693689    -0.03500
C1258       C  0.01681824  0.01723956  0.60856892    -0.09200
C1259       C  0.99441497  0.01747778  0.60844423    -0.16900
C1260       C  0.98327406  0.49670758  0.62639630     0.25300
C1261       C  0.99451091  0.47716343  0.64569027    -0.18600
C1262       C  0.01690879  0.47699826  0.64585909    -0.07500
C1263       C  0.96018601  0.49681510  0.62633202    -0.13900
C1264       C  0.94085751  0.49657796  0.62653583    -0.13600
C1265       C  0.91777866  0.49590184  0.62693556     0.25200
C1266       C  0.90651031  0.51637306  0.64544475    -0.19000
C1267       C  0.88411579  0.51555814  0.64594973    -0.07500
C1268       C  0.87250022  0.99430358  0.62809522    -0.03600
C1269       C  0.88403175  0.97392603  0.60947831    -0.08900
C1270       C  0.90641271  0.97480852  0.60902388    -0.16500
H1271       H  0.02508221  0.03340282  0.59411480     0.11600
H1272       H  0.98593214  0.03381230  0.59411642     0.10900
H1273       H  0.98595571  0.46207591  0.66066166     0.10800
H1274       H  0.02511266  0.46184754  0.66118509     0.11300
H1275       H  0.91503540  0.53294575  0.65953952     0.11400
H1276       H  0.87594223  0.53162883  0.66058119     0.11400
H1277       H  0.87587771  0.95736439  0.59510527     0.11500
H1278       H  0.91495702  0.95893184  0.59452647     0.10300
C1279       C  0.37194254  0.74540375  0.62797396    -0.03500
C1280       C  0.38354343  0.71768836  0.61701373    -0.09200
C1281       C  0.40593199  0.71789144  0.61715483    -0.16900
C1282       C  0.41708783  0.74575408  0.62820501     0.25300
C1283       C  0.40573746  0.77343561  0.63918807    -0.18600
C1284       C  0.38333411  0.77328248  0.63910891    -0.07500
C1285       C  0.44016069  0.74588984  0.62821377    -0.13900
C1286       C  0.45948301  0.74567426  0.62805975    -0.13600
C1287       C  0.48255661  0.74516871  0.62776661     0.25200
C1288       C  0.49366075  0.75876657  0.60549947    -0.19000
C1289       C  0.51606207  0.75834332  0.60521477    -0.07500
C1290       C  0.52768289  0.74410606  0.62716518    -0.03600
C1291       C  0.51636510  0.73036204  0.64940325    -0.08900
C1292       C  0.49396621  0.73098969  0.64971336    -0.16500
H1293       H  0.37540873  0.69565481  0.60848974     0.11600
H1294       H  0.41454489  0.69627667  0.60864504     0.10900
H1295       H  0.41420143  0.79518517  0.64776576     0.10800
H1296       H  0.37502173  0.79518067  0.64753820     0.11300
H1297       H  0.48500489  0.76969701  0.58834271     0.11400
H1298       H  0.52423839  0.76881914  0.58766056     0.11400
H1299       H  0.52478471  0.71949063  0.66673715     0.11500
H1300       H  0.48555086  0.72042883  0.66708425     0.10300
C1301       C  0.37234240  0.74059374  0.87664818    -0.03500
C1302       C  0.38384146  0.76343553  0.85994581    -0.09200
C1303       C  0.40625164  0.76332087  0.85998405    -0.16900
C1304       C  0.41756537  0.74041926  0.87667388     0.25300
C1305       C  0.40634430  0.71753380  0.89328346    -0.18600
C1306       C  0.38393496  0.71758390  0.89329166    -0.07500
C1307       C  0.44065960  0.74051351  0.87686182    -0.13900
C1308       C  0.45999274  0.74072061  0.87707164    -0.13600
C1309       C  0.48308169  0.74117661  0.87722467     0.25200
C1310       C  0.49413715  0.76553188  0.89281805    -0.19000
C1311       C  0.51653555  0.76631640  0.89268408    -0.07500
C1312       C  0.52827189  0.74270238  0.87690068    -0.03600
C1313       C  0.51694590  0.71815675  0.86143602    -0.08900
C1314       C  0.49454985  0.71744096  0.86161112    -0.16500
H1315       H  0.37563945  0.78144572  0.84676022     0.11600
H1316       H  0.41475203  0.78115281  0.84700521     0.10900
H1317       H  0.41491790  0.69967918  0.90630900     0.10800
H1318       H  0.37580692  0.69965577  0.90648385     0.11300
H1319       H  0.48544014  0.78404566  0.90500552     0.11400
H1320       H  0.52453698  0.78562253  0.90484431     0.11400
H1321       H  0.52526916  0.69942095  0.84913192     0.11500
H1322       H  0.48617777  0.69841486  0.84948349     0.10300
C1323       C  0.02729470  0.99152222  0.87737963    -0.03500
C1324       C  0.01563840  0.51387941  0.89459645    -0.09200
C1325       C  0.99323705  0.51376584  0.89449188    -0.16900
C1326       C  0.98209891  0.99140666  0.87707603     0.25300
C1327       C  0.99340064  0.96895899  0.86012400    -0.18600
C1328       C  0.01580191  0.96898562  0.86024878    -0.07500
C1329       C  0.95902002  0.99124411  0.87701620    -0.13900
C1330       C  0.93969438  0.99115905  0.87701518    -0.13600
C1331       C  0.91661485  0.99123236  0.87703215     0.25200
C1332       C  0.90536478  0.02147833  0.87135116    -0.19000
C1333       C  0.88296566  0.02161133  0.87131379    -0.07500
C1334       C  0.87148835  0.99148895  0.87713217    -0.03600
C1335       C  0.88285470  0.46146779  0.88423938    -0.08900
C1336       C  0.90526059  0.46139852  0.88421982    -0.16500
H1337       H  0.02378064  0.53150173  0.90815090     0.11600
H1338       H  0.98468184  0.53117401  0.90781965     0.10900
H1339       H  0.98489708  0.95137745  0.84681059     0.10800
H1340       H  0.02399323  0.95127309  0.84689301     0.11300
H1341       H  0.91390587  0.04498329  0.86696887     0.11400
H1342       H  0.87467651  0.04541778  0.86706655     0.11400
H1343       H  0.87456782  0.43803014  0.88942220     0.11500
H1344       H  0.91380134  0.43811993  0.88952762     0.10300
loop_ 
_geom_bond_atom_site_label_1 
_geom_bond_atom_site_label_2 
_geom_bond_distance 
_geom_bond_site_symmetry_2 
_ccdc_geom_bond_type 
N1            N2   1.323       .  A
N1            C5   1.345       .  A
N1           Cu9   2.075       .  S
N2            C3   1.345       .  A
N2           Cu8   2.071   1_545  S
C3            C4   1.381       .  A
C3            H6   1.082       .  S
C4            C5   1.382       .  A
C4          C199   1.465       .  S
C5            H7   1.082       .  S
Cu8         N683   2.071       .  S
Cu9          N19   2.076       .  S
Cu10         N12   2.074       .  S
Cu10         N18   2.074       .  S
N11          N12   1.322       .  A
N11          C15   1.345       .  A
N11        Cu680   2.070       .  S
N12          C13   1.344       .  A
C13          C14   1.382       .  A
C13          H16   1.082       .  S
C14          C15   1.382       .  A
C14          C60   1.466       .  S
C15          H17   1.082       .  S
N18         N691   1.321       .  A
N18          C22   1.344       .  A
N19         N690   1.321   1_545  A
N19          C20   1.345       .  A
C20         C693   1.389   1_545  A
C20          H23   1.081       .  S
C21          C22   1.387       .  A
C21         C692   1.388       .  A
C21         C315   1.485       .  S
C22          H24   1.081       .  S
N25          N26   1.322       .  A
N25          C29   1.345       .  A
N25         Cu33   2.075       .  S
N26          C27   1.345       .  A
N26         Cu32   2.069       .  S
C27          C28   1.382       .  A
C27          H30   1.082       .  S
C28          C29   1.383       .  A
C28         C123   1.467       .  S
C29          H31   1.082       .  S
Cu32        N707   2.069       .  S
Cu33         N43   2.075       .  S
Cu34         N36   2.076       .  S
Cu34         N42   2.076       .  S
N35          N36   1.323       .  A
N35          C39   1.345       .  A
N35        Cu704   2.072   1_545  S
N36          C37   1.345       .  A
C37          C38   1.383       .  A
C37          H40   1.082       .  S
C38          C39   1.382       .  A
C38         C184   1.468       .  S
C39          H41   1.082       .  S
N42         N715   1.321   1_545  A
N42          C46   1.345       .  A
N43         N714   1.322       .  A
N43          C44   1.345       .  A
C44          C45   1.387       .  A
C44          H47   1.082       .  S
C45         C718   1.387       .  A
C45         C326   1.484       .  S
C46         C717   1.388   1_545  A
C46          H48   1.081       .  S
O49         Cu57   2.003       .  S
O49          C59   1.277       .  A
O50         Cu57   2.016       .  S
O50          C60   1.278       .  A
O51         Cu57   2.006       .  S
O51          C61   1.277       .  A
O52         Cu57   2.016       .  S
O52          C62   1.278       .  A
O53         Cu58   2.006       .  S
O53          C62   1.277       .  A
O54         Cu58   2.020       .  S
O54          C61   1.279       .  A
O55         Cu58   2.001       .  S
O55          C60   1.276       .  A
O56         Cu58   2.013       .  S
O56          C59   1.278       .  A
Cu57        Cu58   2.377       .  S
C59         C128   1.466       .  S
C61          C66   1.470       .  S
C62         C214   1.469       .  S
N63          N64   1.323       .  A
N63          C67   1.346       .  A
N63         Cu71   2.083       .  S
N64          C65   1.345       .  A
N64         Cu70   2.070       .  S
C65          C66   1.382       .  A
C65          H68   1.082       .  S
C66          C67   1.384       .  A
C67          H69   1.082       .  S
Cu70         N73   2.070       .  S
Cu71         N81   2.082       .  S
Cu72         N74   2.077       .  S
Cu72         N80   2.077       .  S
N73          N74   1.323       .  A
N73          C77   1.345       .  A
N74          C75   1.345       .  A
C75          C76   1.382       .  A
C75          H78   1.082       .  S
C76          C77   1.381       .  A
C76         C198   1.466       .  S
C77          H79   1.082       .  S
N80          N81   1.321       .  A
N80          C84   1.346       .  A
N81          C82   1.345       .  A
C82          C83   1.390       .  A
C82          H85   1.081       .  S
C83          C84   1.390       .  A
C83         C293   1.492       .  S
C84          H86   1.081       .  S
N87          N88   1.323       .  A
N87          C91   1.343       .  A
N87         Cu95   2.070       .  S
N88          C89   1.345       .  A
N88         Cu94   2.069       .  S
C89          C90   1.381       .  A
C89          H92   1.082       .  S
C90          C91   1.380       .  A
C90         C185   1.463       .  S
C91          H93   1.082       .  S
Cu94         N97   2.069       .  S
Cu95        N105   2.071       .  S
Cu96         N98   2.072       .  S
Cu96        N104   2.072       .  S
N97          N98   1.323       .  A
N97         C101   1.345       .  A
N98          C99   1.343       .  A
C99         C100   1.380       .  A
C99         H102   1.082       .  S
C100        C101   1.381       .  A
C100        C122   1.463       .  S
C101        H103   1.082       .  S
N104        N105   1.319       .  A
N104        C108   1.345       .  A
N105        C106   1.344       .  A
C106        C107   1.389       .  A
C106        H109   1.081       .  S
C107        C108   1.389       .  A
C107        C304   1.488       .  S
C108        H110   1.081       .  S
O111       Cu119   1.999       .  S
O111        C121   1.276       .  A
O112       Cu455   2.009       .  S
O112        C122   1.277       .  A
O113       Cu455   2.002       .  S
O113        C123   1.276       .  A
O114       Cu119   2.014       .  S
O114        C124   1.278       .  A
O115       Cu120   2.003       .  S
O115        C124   1.276       .  A
O116       Cu456   2.016       .  S
O116        C123   1.279       .  A
O117       Cu456   2.000       .  S
O117        C122   1.276       .  A
O118       Cu120   2.015       .  S
O118        C121   1.278       .  A
Cu119       O448   2.010   1_554  S
Cu119       O449   2.000   1_554  S
Cu119      Cu120   2.378       .  S
Cu120       O452   2.015   1_554  S
Cu120       O453   2.000   1_554  S
C121        C238   1.465       .  S
C124        C152   1.466       .  S
N125        N126   1.322       .  A
N125        C129   1.344       .  A
N125       Cu133   2.069       .  S
N126        C127   1.346       .  A
N126       Cu132   2.075       .  S
C127        C128   1.383       .  A
C127        H130   1.082       .  S
C128        C129   1.381       .  A
C129        H131   1.082       .  S
Cu132       N135   2.075       .  S
Cu133       N143   2.070       .  S
Cu134       N136   2.071       .  S
Cu134       N142   2.072       .  S
N135        N136   1.323       .  A
N135        C139   1.346       .  A
N136        C137   1.344       .  A
C137        C138   1.381       .  A
C137        H140   1.082       .  S
C138        C139   1.382       .  A
C138        C200   1.466       .  S
C139        H141   1.082       .  S
N142        N143   1.321       .  A
N142        C146   1.344       .  A
N143        C144   1.344       .  A
C144        C145   1.387       .  A
C144        H147   1.081       .  S
C145        C146   1.387       .  A
C145        C271   1.483       .  S
C146        H148   1.081       .  S
N149        N150   1.323       .  A
N149        C153   1.345       .  A
N149       Cu157   2.075       .  S
N150        C151   1.345       .  A
N150       Cu156   2.070       .  S
C151        C152   1.381       .  A
C151        H154   1.082       .  S
C152        C153   1.382       .  A
C153        H155   1.082       .  S
Cu156       N159   2.070       .  S
Cu157       N167   2.075       .  S
Cu158       N160   2.077       .  S
Cu158       N166   2.077       .  S
N159        N160   1.323       .  A
N159        C163   1.345       .  A
N160        C161   1.345       .  A
C161        C162   1.382       .  A
C161        H164   1.082       .  S
C162        C163   1.381       .  A
C162        C183   1.467       .  S
C163        H165   1.082       .  S
N166        N167   1.321       .  A
N166        C170   1.345       .  A
N167        C168   1.345       .  A
C168        C169   1.387       .  A
C168        H171   1.081       .  S
C169        C170   1.388       .  A
C169        C282   1.484       .  S
C170        H172   1.081       .  S
O173       Cu181   2.003       .  S
O173        C183   1.276       .  A
O174       Cu181   2.015       .  S
O174        C184   1.278       .  A
O175       Cu181   2.002       .  S
O175        C185   1.277       .  A
O176       Cu181   2.016       .  S
O176        C186   1.278       .  A
O177       Cu182   1.995       .  S
O177        C186   1.275       .  A
O178       Cu182   2.007       .  S
O178        C185   1.277       .  A
O179       Cu182   2.004       .  S
O179        C184   1.277       .  A
O180       Cu182   2.016       .  S
O180        C183   1.278       .  A
Cu181      Cu182   2.378       .  S
C186        C228   1.464       .  S
O187       Cu195   2.002       .  S
O187        C197   1.276       .  A
O188       Cu531   2.016       .  S
O188        C198   1.279       .  A
O189       Cu531   2.000       .  S
O189        C199   1.276       .  A
O190       Cu195   2.014       .  S
O190        C200   1.278       .  A
O191       Cu196   2.003       .  S
O191        C200   1.277       .  A
O192       Cu532   2.015       .  S
O192        C199   1.278       .  A
O193       Cu532   2.001       .  S
O193        C198   1.276       .  A
O194       Cu196   2.014       .  S
O194        C197   1.278       .  A
Cu195       O524   2.016   1_554  S
Cu195       O525   2.001   1_554  S
Cu195      Cu196   2.377       .  S
Cu196       O528   2.015   1_554  S
Cu196       O529   2.002   1_554  S
C197        C204   1.466       .  S
N201        N202   1.323       .  A
N201        C205   1.345       .  A
N201       Cu209   2.076       .  S
N202        C203   1.345       .  A
N202       Cu880   2.070   1_545  S
C203        C204   1.381       .  A
C203        H206   1.082       .  S
C204        C205   1.382       .  A
C205        H207   1.082       .  S
Cu208       N211   2.073       .  S
Cu208       N874   2.073       .  S
Cu209       N219   2.077       .  S
Cu210       N212   2.078       .  S
Cu210       N218   2.079       .  S
N211        N212   1.323       .  A
N211        C215   1.346       .  A
N212        C213   1.345       .  A
C213        C214   1.383       .  A
C213        H216   1.082       .  S
C214        C215   1.382       .  A
C215        H217   1.082       .  S
N218        N891   1.321       .  A
N218        C222   1.345       .  A
N219        N890   1.321   1_545  A
N219        C220   1.345       .  A
C220        C893   1.390   1_545  A
C220        H223   1.081       .  S
C221        C222   1.390       .  A
C221        C892   1.389       .  A
C221        C249   1.490       .  S
C222        H224   1.081       .  S
N225        N226   1.322       .  A
N225        C229   1.343       .  A
N225       Cu233   2.073       .  S
N226        C227   1.345       .  A
N226       Cu904   2.066   1_545  S
C227        C228   1.381       .  A
C227        H230   1.082       .  S
C228        C229   1.382       .  A
C229        H231   1.082       .  S
Cu232       N235   2.068       .  S
Cu232       N898   2.068       .  S
Cu233       N243   2.074       .  S
Cu234       N236   2.076       .  S
Cu234       N242   2.077       .  S
N235        N236   1.323       .  A
N235        C239   1.345       .  A
N236        C237   1.344       .  A
C237        C238   1.382       .  A
C237        H240   1.082       .  S
C238        C239   1.381       .  A
C239        H241   1.082       .  S
N242        N915   1.321       .  A
N242        C246   1.345       .  A
N243        N914   1.321   1_545  A
N243        C244   1.345       .  A
C244        C917   1.389   1_545  A
C244        H247   1.081       .  S
C245        C246   1.389       .  A
C245        C916   1.389       .  A
C245        C260   1.488       .  S
C246        H248   1.081       .  S
C249        C250   1.410       .  A
C249        C926   1.409       .  A
C250        C251   1.400   1_455  A
C250        H263   1.081       .  S
C251        C924   1.399       .  A
C251        H264   1.083       .  S
C252        C253   1.399       .  A
C252        C923   1.399   1_565  A
C252        C255   1.443       .  S
C253        C254   1.399   1_655  A
C253        H265   1.083       .  S
C254        C921   1.409       .  A
C254        H266   1.081       .  S
C255        C256   1.208       .  T
C256        C257   1.442       .  S
C257        C258   1.399   1_565  A
C257        C934   1.399       .  A
C258        C259   1.399       .  A
C258        H267   1.083       .  S
C259        C932   1.409   1_545  A
C259        H268   1.081       .  S
C260        C261   1.409       .  A
C260        C931   1.409       .  A
C261        C262   1.399       .  A
C261        H269   1.081       .  S
C262        C929   1.399       .  A
C262        H270   1.083       .  S
C271        C272   1.407       .  A
C271        C276   1.408       .  A
C272        C273   1.398       .  A
C272        H285   1.082       .  S
C273        C274   1.399       .  A
C273        H286   1.084       .  S
C274        C275   1.400       .  A
C274        C277   1.440       .  S
C275        C276   1.399       .  A
C275        H287   1.083       .  S
C276        H288   1.082       .  S
C277        C278   1.206       .  T
C278        C279   1.441       .  S
C279        C280   1.399       .  A
C279        C284   1.399       .  A
C280        C281   1.399       .  A
C280        H289   1.084       .  S
C281        C282   1.408       .  A
C281        H290   1.082       .  S
C282        C283   1.408       .  A
C283        C284   1.399       .  A
C283        H291   1.082       .  S
C284        H292   1.084       .  S
C293        C294   1.409       .  A
C293        C298   1.410       .  A
C294        C295   1.400       .  A
C294        H307   1.081       .  S
C295        C296   1.399       .  A
C295        H308   1.084       .  S
C296        C297   1.399       .  A
C296        C299   1.443       .  S
C297        C298   1.400       .  A
C297        H309   1.083       .  S
C298        H310   1.081       .  S
C299        C300   1.208       .  T
C300        C301   1.443       .  S
C301        C302   1.400       .  A
C301        C306   1.399       .  A
C302        C303   1.400       .  A
C302        H311   1.083       .  S
C303        C304   1.409       .  A
C303        H312   1.082       .  S
C304        C305   1.409       .  A
C305        C306   1.399       .  A
C305        H313   1.081       .  S
C306        H314   1.083       .  S
C315        C320   1.408       .  A
C315        C988   1.408       .  A
C316        C317   1.399   1_455  A
C316        C987   1.409   1_545  A
C316        H329   1.081       .  S
C317        C990   1.399   1_545  A
C317        H330   1.083       .  S
C318        C319   1.399       .  A
C318        C989   1.399       .  A
C318        C321   1.441       .  S
C319        C320   1.399   1_655  A
C319        H331   1.083       .  S
C320        H332   1.082       .  S
C321        C322   1.207       .  T
C322        C323   1.441       .  S
C323        C324   1.399       .  A
C323       C1000   1.400       .  A
C324        C325   1.399       .  A
C324        H333   1.083       .  S
C325        C326   1.407       .  A
C325        H334   1.082       .  S
C326        C999   1.408       .  A
C327        C328   1.399       .  A
C327        C998   1.408       .  A
C327        H335   1.082       .  S
C328        C995   1.400       .  A
C328        H336   1.083       .  S
N337        N338   1.323       .  A
N337        C341   1.344       .  A
N337       Cu345   2.074       .  S
N338        C339   1.345       .  A
N338       Cu344   2.071   1_545  S
C339        C340   1.381       .  A
C339        H342   1.082       .  S
C340        C341   1.382       .  A
C340        C535   1.465       .  S
C341        H343   1.082       .  S
Cu344      N1019   2.071       .  S
Cu345       N355   2.074       .  S
Cu346       N348   2.073       .  S
Cu346       N354   2.074       .  S
N347        N348   1.323       .  A
N347        C351   1.345       .  A
N347      Cu1016   2.069       .  S
N348        C349   1.344       .  A
C349        C350   1.382       .  A
C349        H352   1.082       .  S
C350        C351   1.381       .  A
C350        C396   1.465       .  S
C351        H353   1.082       .  S
N354       N1027   1.320       .  A
N354        C358   1.344       .  A
N355       N1026   1.320   1_545  A
N355        C356   1.345       .  A
C356       C1029   1.389   1_545  A
C356        H359   1.081       .  S
C357       C1028   1.390       .  A
C357        C358   1.389       .  A
C357        C651   1.489       .  S
C358        H360   1.081       .  S
N361        N362   1.323       .  A
N361        C365   1.344       .  A
N361       Cu369   2.074       .  S
N362        C363   1.345       .  A
N362       Cu368   2.070       .  S
C363        C364   1.381       .  A
C363        H366   1.082       .  S
C364        C365   1.382       .  A
C364        C459   1.466       .  S
C365        H367   1.082       .  S
Cu368      N1043   2.070       .  S
Cu369       N379   2.074       .  S
Cu370       N372   2.075       .  S
Cu370       N378   2.076       .  S
N371        N372   1.322       .  A
N371        C375   1.345       .  A
N371      Cu1040   2.072   1_545  S
N372        C373   1.345       .  A
C373        C374   1.383       .  A
C373        H376   1.082       .  S
C374        C375   1.382       .  A
C374        C520   1.468       .  S
C375        H377   1.082       .  S
N378       N1051   1.321   1_545  A
N378        C382   1.345       .  A
N379       N1050   1.321       .  A
N379        C380   1.345       .  A
C380        C381   1.387       .  A
C380        H383   1.081       .  S
C381       C1054   1.387       .  A
C381        C662   1.484       .  S
C382       C1053   1.387   1_545  A
C382        H384   1.082       .  S
O385       Cu393   2.002       .  S
O385        C395   1.277       .  A
O386       Cu393   2.015       .  S
O386        C396   1.278       .  A
O387       Cu393   2.003       .  S
O387        C397   1.276       .  A
O388       Cu393   2.014       .  S
O388        C398   1.278       .  A
O389       Cu394   2.005       .  S
O389        C398   1.277       .  A
O390       Cu394   2.019       .  S
O390        C397   1.279       .  A
O391       Cu394   2.000       .  S
O391        C396   1.276       .  A
O392       Cu394   2.012       .  S
O392        C395   1.278       .  A
Cu393      Cu394   2.377       .  S
C395        C464   1.465       .  S
C397        C402   1.468       .  S
C398        C550   1.467       .  S
N399        N400   1.323       .  A
N399        C403   1.346       .  A
N399       Cu407   2.081       .  S
N400        C401   1.345       .  A
N400       Cu406   2.070       .  S
C401        C402   1.381       .  A
C401        H404   1.082       .  S
C402        C403   1.384       .  A
C403        H405   1.082       .  S
Cu406       N409   2.070       .  S
Cu407       N417   2.081       .  S
Cu408       N410   2.077       .  S
Cu408       N416   2.078       .  S
N409        N410   1.323       .  A
N409        C413   1.345       .  A
N410        C411   1.345       .  A
C411        C412   1.383       .  A
C411        H414   1.082       .  S
C412        C413   1.381       .  A
C412        C534   1.467       .  S
C413        H415   1.082       .  S
N416        N417   1.321       .  A
N416        C420   1.345       .  A
N417        C418   1.345       .  A
C418        C419   1.390       .  A
C418        H421   1.081       .  S
C419        C420   1.390       .  A
C419        C629   1.490       .  S
C420        H422   1.081       .  S
N423        N424   1.323       .  A
N423        C427   1.343       .  A
N423       Cu431   2.070       .  S
N424        C425   1.345       .  A
N424       Cu430   2.070       .  S
C425        C426   1.382       .  A
C425        H428   1.082       .  S
C426        C427   1.380       .  A
C426        C521   1.463       .  S
C427        H429   1.082       .  S
Cu430       N433   2.070       .  S
Cu431       N441   2.071       .  S
Cu432       N434   2.073       .  S
Cu432       N440   2.073       .  S
N433        N434   1.323       .  A
N433        C437   1.345       .  A
N434        C435   1.343       .  A
C435        C436   1.380       .  A
C435        H438   1.082       .  S
C436        C437   1.381       .  A
C436        C458   1.463       .  S
C437        H439   1.082       .  S
N440        N441   1.319       .  A
N440        C444   1.345       .  A
N441        C442   1.344       .  A
C442        C443   1.390       .  A
C442        H445   1.081       .  S
C443        C444   1.390       .  A
C443        C640   1.490       .  S
C444        H446   1.081       .  S
O447       Cu455   1.999       .  S
O447        C457   1.276       .  A
O448        C458   1.277       .  A
O449        C459   1.276       .  A
O450       Cu455   2.016       .  S
O450        C460   1.278       .  A
O451       Cu456   2.005       .  S
O451        C460   1.277       .  A
O452        C459   1.278       .  A
O453        C458   1.276       .  A
O454       Cu456   2.015       .  S
O454        C457   1.278       .  A
Cu455      Cu456   2.378       .  S
C457        C574   1.465       .  S
C460        C488   1.467       .  S
N461        N462   1.322       .  A
N461        C465   1.344       .  A
N461       Cu469   2.070       .  S
N462        C463   1.346       .  A
N462       Cu468   2.074       .  S
C463        C464   1.383       .  A
C463        H466   1.082       .  S
C464        C465   1.381       .  A
C465        H467   1.082       .  S
Cu468       N471   2.074       .  S
Cu469       N479   2.070       .  S
Cu470       N472   2.071       .  S
Cu470       N478   2.071       .  S
N471        N472   1.323       .  A
N471        C475   1.345       .  A
N472        C473   1.344       .  A
C473        C474   1.381       .  A
C473        H476   1.082       .  S
C474        C475   1.382       .  A
C474        C536   1.465       .  S
C475        H477   1.082       .  S
N478        N479   1.320       .  A
N478        C482   1.344       .  A
N479        C480   1.344       .  A
C480        C481   1.388       .  A
C480        H483   1.081       .  S
C481        C482   1.389       .  A
C481        C607   1.487       .  S
C482        H484   1.081       .  S
N485        N486   1.323       .  A
N485        C489   1.345       .  A
N485       Cu493   2.077       .  S
N486        C487   1.345       .  A
N486       Cu492   2.072       .  S
C487        C488   1.382       .  A
C487        H490   1.082       .  S
C488        C489   1.383       .  A
C489        H491   1.082       .  S
Cu492       N495   2.072       .  S
Cu493       N503   2.077       .  S
Cu494       N496   2.076       .  S
Cu494       N502   2.076       .  S
N495        N496   1.323       .  A
N495        C499   1.345       .  A
N496        C497   1.345       .  A
C497        C498   1.382       .  A
C497        H500   1.082       .  S
C498        C499   1.382       .  A
C498        C519   1.467       .  S
C499        H501   1.082       .  S
N502        N503   1.321       .  A
N502        C506   1.345       .  A
N503        C504   1.345       .  A
C504        C505   1.388       .  A
C504        H507   1.081       .  S
C505        C506   1.388       .  A
C505        C618   1.486       .  S
C506        H508   1.081       .  S
O509       Cu517   2.002       .  S
O509        C519   1.276       .  A
O510       Cu517   2.015       .  S
O510        C520   1.278       .  A
O511       Cu517   2.002       .  S
O511        C521   1.277       .  A
O512       Cu517   2.015       .  S
O512        C522   1.278       .  A
O513       Cu518   1.995       .  S
O513        C522   1.275       .  A
O514       Cu518   2.008       .  S
O514        C521   1.277       .  A
O515       Cu518   2.005       .  S
O515        C520   1.277       .  A
O516       Cu518   2.017       .  S
O516        C519   1.279       .  A
Cu517      Cu518   2.378       .  S
C522        C564   1.464       .  S
O523       Cu531   2.000       .  S
O523        C533   1.276       .  A
O524        C534   1.279       .  A
O525        C535   1.276       .  A
O526       Cu531   2.012       .  S
O526        C536   1.278       .  A
O527       Cu532   2.003       .  S
O527        C536   1.277       .  A
O528        C535   1.278       .  A
O529        C534   1.276       .  A
O530       Cu532   2.012       .  S
O530        C533   1.278       .  A
Cu531      Cu532   2.378       .  S
C533        C540   1.465       .  S
N537        N538   1.322       .  A
N537        C541   1.344       .  A
N537       Cu545   2.072       .  S
N538        C539   1.345       .  A
N538      Cu1216   2.068   1_545  S
C539        C540   1.381       .  A
C539        H542   1.082       .  S
C540        C541   1.382       .  A
C541        H543   1.082       .  S
Cu544      N1210   2.071       .  S
Cu544       N547   2.071       .  S
Cu545       N555   2.073       .  S
Cu546       N548   2.076       .  S
Cu546       N554   2.076       .  S
N547        N548   1.323       .  A
N547        C551   1.345       .  A
N548        C549   1.345       .  A
C549        C550   1.382       .  A
C549        H552   1.082       .  S
C550        C551   1.382       .  A
C551        H553   1.082       .  S
N554       N1227   1.321       .  A
N554        C558   1.345       .  A
N555       N1226   1.321   1_545  A
N555        C556   1.344       .  A
C556       C1229   1.388   1_545  A
C556        H559   1.081       .  S
C557       C1228   1.388       .  A
C557        C558   1.388       .  A
C557        C585   1.487       .  S
C558        H560   1.081       .  S
N561        N562   1.322       .  A
N561        C565   1.343       .  A
N561       Cu569   2.071       .  S
N562        C563   1.345       .  A
N562      Cu1240   2.067   1_545  S
C563        C564   1.381       .  A
C563        H566   1.082       .  S
C564        C565   1.381       .  A
C565        H567   1.082       .  S
Cu568      N1234   2.068       .  S
Cu568       N571   2.068       .  S
Cu569       N579   2.072       .  S
Cu570       N572   2.075       .  S
Cu570       N578   2.076       .  S
N571        N572   1.322       .  A
N571        C575   1.345       .  A
N572        C573   1.344       .  A
C573        C574   1.382       .  A
C573        H576   1.082       .  S
C574        C575   1.381       .  A
C575        H577   1.082       .  S
N578       N1251   1.321       .  A
N578        C582   1.344       .  A
N579       N1250   1.320   1_545  A
N579        C580   1.344       .  A
C580       C1253   1.389   1_545  A
C580        H583   1.081       .  S
C581       C1252   1.389       .  A
C581        C582   1.389       .  A
C581        C596   1.489       .  S
C582        H584   1.081       .  S
C585        C586   1.408       .  A
C585       C1262   1.408       .  A
C586        C587   1.400   1_455  A
C586        H599   1.082       .  S
C587       C1260   1.400       .  A
C587        H600   1.083       .  S
C588       C1259   1.399   1_565  A
C588        C589   1.399       .  A
C588        C591   1.441       .  S
C589        C590   1.399   1_655  A
C589        H601   1.084       .  S
C590       C1257   1.408       .  A
C590        H602   1.081       .  S
C591        C592   1.207       .  T
C592        C593   1.441       .  S
C593        C594   1.399   1_565  A
C593       C1270   1.399       .  A
C594        C595   1.399       .  A
C594        H603   1.084       .  S
C595       C1268   1.409   1_545  A
C595        H604   1.081       .  S
C596       C1267   1.409       .  A
C596        C597   1.409       .  A
C597        C598   1.399       .  A
C597        H605   1.081       .  S
C598       C1265   1.399       .  A
C598        H606   1.084       .  S
C607        C608   1.408       .  A
C607        C612   1.409       .  A
C608        C609   1.398       .  A
C608        H621   1.081       .  S
C609        C610   1.399       .  A
C609        H622   1.084       .  S
C610        C611   1.399       .  A
C610        C613   1.441       .  S
C611        C612   1.399       .  A
C611        H623   1.084       .  S
C612        H624   1.081       .  S
C613        C614   1.207       .  T
C614        C615   1.441       .  S
C615        C616   1.399       .  A
C615        C620   1.399       .  A
C616        C617   1.399       .  A
C616        H625   1.084       .  S
C617        C618   1.408       .  A
C617        H626   1.082       .  S
C618        C619   1.408       .  A
C619        C620   1.399       .  A
C619        H627   1.082       .  S
C620        H628   1.084       .  S
C629        C630   1.409       .  A
C629        C634   1.409       .  A
C630        C631   1.400       .  A
C630        H643   1.081       .  S
C631        C632   1.399       .  A
C631        H644   1.083       .  S
C632        C633   1.399       .  A
C632        C635   1.443       .  S
C633        C634   1.400       .  A
C633        H645   1.083       .  S
C634        H646   1.081       .  S
C635        C636   1.208       .  T
C636        C637   1.443       .  S
C637        C638   1.399       .  A
C637        C642   1.399       .  A
C638        C639   1.400       .  A
C638        H647   1.083       .  S
C639        C640   1.409       .  A
C639        H648   1.081       .  S
C640        C641   1.409       .  A
C641        C642   1.399       .  A
C641        H649   1.081       .  S
C642        H650   1.083       .  S
C651       C1324   1.409       .  A
C651        C656   1.409       .  A
C652       C1323   1.409   1_545  A
C652        C653   1.399   1_455  A
C652        H665   1.081       .  S
C653       C1326   1.399   1_545  A
C653        H666   1.084       .  S
C654       C1325   1.399       .  A
C654        C655   1.399       .  A
C654        C657   1.441       .  S
C655        C656   1.399   1_655  A
C655        H667   1.084       .  S
C656        H668   1.081       .  S
C657        C658   1.207       .  T
C658        C659   1.441       .  S
C659        C660   1.399       .  A
C659       C1336   1.400       .  A
C660        C661   1.399       .  A
C660        H669   1.083       .  S
C661        C662   1.407       .  A
C661        H670   1.082       .  S
C662       C1335   1.408       .  A
C663       C1334   1.407       .  A
C663        C664   1.399       .  A
C663        H671   1.082       .  S
C664       C1331   1.400       .  A
C664        H672   1.083       .  S
N673        N674   1.323       .  A
N673        C677   1.344       .  A
N673       Cu681   2.074       .  S
N674        C675   1.345       .  A
N674       Cu680   2.070       .  S
C675        C676   1.381       .  A
C675        H678   1.082       .  S
C676        C677   1.382       .  A
C676        C871   1.465       .  S
C677        H679   1.082       .  S
Cu681       N691   2.074       .  S
Cu682       N684   2.074       .  S
Cu682       N690   2.074       .  S
N683        N684   1.322       .  A
N683        C687   1.346       .  A
N684        C685   1.344       .  A
C685        C686   1.382       .  A
C685        H688   1.082       .  S
C686        C687   1.382       .  A
C686        C732   1.467       .  S
C687        H689   1.082       .  S
N690        C694   1.344       .  A
N691        C692   1.345       .  A
C692        H695   1.081       .  S
C693        C694   1.389       .  A
C693        C987   1.488       .  S
C694        H696   1.081       .  S
N697        N698   1.322       .  A
N697        C701   1.345       .  A
N697       Cu705   2.074       .  S
N698        C699   1.345       .  A
N698       Cu704   2.072       .  S
C699        C700   1.382       .  A
C699        H702   1.082       .  S
C700        C701   1.382       .  A
C700        C795   1.467       .  S
C701        H703   1.082       .  S
Cu705       N715   2.075       .  S
Cu706       N708   2.077       .  S
Cu706       N714   2.077       .  S
N707        N708   1.322       .  A
N707        C711   1.345       .  A
N708        C709   1.345       .  A
C709        C710   1.383       .  A
C709        H712   1.082       .  S
C710        C711   1.381       .  A
C710        C856   1.467       .  S
C711        H713   1.082       .  S
N714        C718   1.345       .  A
N715        C716   1.345       .  A
C716        C717   1.387       .  A
C716        H719   1.081       .  S
C717        C998   1.485       .  S
C718        H720   1.082       .  S
O721       Cu729   2.003       .  S
O721        C731   1.277       .  A
O722       Cu729   2.017       .  S
O722        C732   1.278       .  A
O723       Cu729   2.005       .  S
O723        C733   1.277       .  A
O724       Cu729   2.015       .  S
O724        C734   1.278       .  A
O725       Cu730   2.003       .  S
O725        C734   1.276       .  A
O726       Cu730   2.017       .  S
O726        C733   1.279       .  A
O727       Cu730   2.002       .  S
O727        C732   1.276       .  A
O728       Cu730   2.014       .  S
O728        C731   1.278       .  A
Cu729      Cu730   2.377       .  S
C731        C800   1.467       .  S
C733        C738   1.469       .  S
C734        C886   1.467       .  S
N735        N736   1.323       .  A
N735        C739   1.346       .  A
N735       Cu743   2.081       .  S
N736        C737   1.345       .  A
N736       Cu742   2.070       .  S
C737        C738   1.382       .  A
C737        H740   1.082       .  S
C738        C739   1.384       .  A
C739        H741   1.082       .  S
Cu742       N745   2.070       .  S
Cu743       N753   2.081       .  S
Cu744       N746   2.077       .  S
Cu744       N752   2.077       .  S
N745        N746   1.323       .  A
N745        C749   1.345       .  A
N746        C747   1.345       .  A
C747        C748   1.382       .  A
C747        H750   1.082       .  S
C748        C749   1.382       .  A
C748        C870   1.467       .  S
C749        H751   1.082       .  S
N752        N753   1.321       .  A
N752        C756   1.345       .  A
N753        C754   1.345       .  A
C754        C755   1.390       .  A
C754        H757   1.081       .  S
C755        C756   1.390       .  A
C755        C965   1.491       .  S
C756        H758   1.081       .  S
N759        N760   1.323       .  A
N759        C763   1.343       .  A
N759       Cu767   2.070       .  S
N760        C761   1.345       .  A
N760       Cu766   2.069       .  S
C761        C762   1.381       .  A
C761        H764   1.082       .  S
C762        C763   1.380       .  A
C762        C857   1.463       .  S
C763        H765   1.082       .  S
Cu766       N769   2.070       .  S
Cu767       N777   2.070       .  S
Cu768       N770   2.072       .  S
Cu768       N776   2.072       .  S
N769        N770   1.323       .  A
N769        C773   1.345       .  A
N770        C771   1.343       .  A
C771        C772   1.380       .  A
C771        H774   1.082       .  S
C772        C773   1.381       .  A
C772        C794   1.463       .  S
C773        H775   1.082       .  S
N776        N777   1.319       .  A
N776        C780   1.345       .  A
N777        C778   1.344       .  A
C778        C779   1.390       .  A
C778        H781   1.081       .  S
C779        C780   1.390       .  A
C779        C976   1.489       .  S
C780        H782   1.081       .  S
O783       Cu791   1.997       .  S
O783        C793   1.276       .  A
O784      Cu1127   2.009       .  S
O784        C794   1.277       .  A
O785      Cu1127   2.004       .  S
O785        C795   1.277       .  A
O786       Cu791   2.016       .  S
O786        C796   1.279       .  A
O787       Cu792   2.003       .  S
O787        C796   1.276       .  A
O788      Cu1128   2.015       .  S
O788        C795   1.278       .  A
O789      Cu1128   2.000       .  S
O789        C794   1.276       .  A
O790       Cu792   2.016       .  S
O790        C793   1.279       .  A
Cu791      O1120   2.009   1_554  S
Cu791      O1121   2.003   1_554  S
Cu791      Cu792   2.377       .  S
Cu792      O1124   2.016   1_554  S
Cu792      O1125   2.002   1_554  S
C793        C910   1.465       .  S
C796        C824   1.467       .  S
N797        N798   1.322       .  A
N797        C801   1.344       .  A
N797       Cu805   2.070       .  S
N798        C799   1.346       .  A
N798       Cu804   2.075       .  S
C799        C800   1.383       .  A
C799        H802   1.082       .  S
C800        C801   1.381       .  A
C801        H803   1.082       .  S
Cu804       N807   2.075       .  S
Cu805       N815   2.071       .  S
Cu806       N808   2.072       .  S
Cu806       N814   2.072       .  S
N807        N808   1.323       .  A
N807        C811   1.346       .  A
N808        C809   1.344       .  A
C809        C810   1.381       .  A
C809        H812   1.082       .  S
C810        C811   1.382       .  A
C810        C872   1.466       .  S
C811        H813   1.082       .  S
N814        N815   1.321       .  A
N814        C818   1.344       .  A
N815        C816   1.344       .  A
C816        C817   1.387       .  A
C816        H819   1.081       .  S
C817        C818   1.388       .  A
C817        C943   1.484       .  S
C818        H820   1.081       .  S
N821        N822   1.323       .  A
N821        C825   1.345       .  A
N821       Cu829   2.077       .  S
N822        C823   1.345       .  A
N822       Cu828   2.071       .  S
C823        C824   1.382       .  A
C823        H826   1.082       .  S
C824        C825   1.383       .  A
C825        H827   1.082       .  S
Cu828       N831   2.071       .  S
Cu829       N839   2.077       .  S
Cu830       N832   2.076       .  S
Cu830       N838   2.076       .  S
N831        N832   1.323       .  A
N831        C835   1.345       .  A
N832        C833   1.345       .  A
C833        C834   1.382       .  A
C833        H836   1.082       .  S
C834        C835   1.382       .  A
C834        C855   1.467       .  S
C835        H837   1.082       .  S
N838        N839   1.320       .  A
N838        C842   1.345       .  A
N839        C840   1.345       .  A
C840        C841   1.390       .  A
C840        H843   1.081       .  S
C841        C842   1.390       .  A
C841        C954   1.490       .  S
C842        H844   1.081       .  S
O845       Cu853   2.003       .  S
O845        C855   1.276       .  A
O846       Cu853   2.016       .  S
O846        C856   1.279       .  A
O847       Cu853   2.002       .  S
O847        C857   1.277       .  A
O848       Cu853   2.015       .  S
O848        C858   1.278       .  A
O849       Cu854   1.995       .  S
O849        C858   1.275       .  A
O850       Cu854   2.008       .  S
O850        C857   1.277       .  A
O851       Cu854   2.003       .  S
O851        C856   1.276       .  A
O852       Cu854   2.015       .  S
O852        C855   1.278       .  A
Cu853      Cu854   2.378       .  S
C858        C900   1.464       .  S
O859       Cu867   2.003       .  S
O859        C869   1.277       .  A
O860      Cu1203   2.016       .  S
O860        C870   1.279       .  A
O861      Cu1203   2.000       .  S
O861        C871   1.276       .  A
O862       Cu867   2.013       .  S
O862        C872   1.278       .  A
O863       Cu868   2.004       .  S
O863        C872   1.277       .  A
O864      Cu1204   2.015       .  S
O864        C871   1.278       .  A
O865      Cu1204   2.002       .  S
O865        C870   1.276       .  A
O866       Cu868   2.015       .  S
O866        C869   1.278       .  A
Cu867      O1196   2.017   1_554  S
Cu867      O1197   2.000   1_554  S
Cu867      Cu868   2.377       .  S
Cu868      O1200   2.016   1_554  S
Cu868      O1201   2.003   1_554  S
C869        C876   1.467       .  S
N873        N874   1.323       .  A
N873        C877   1.345       .  A
N873       Cu881   2.075       .  S
N874        C875   1.345       .  A
C875        C876   1.382       .  A
C875        H878   1.082       .  S
C876        C877   1.382       .  A
C877        H879   1.082       .  S
Cu880       N883   2.070       .  S
Cu881       N891   2.076       .  S
Cu882       N884   2.076       .  S
Cu882       N890   2.076       .  S
N883        N884   1.322       .  A
N883        C887   1.345       .  A
N884        C885   1.345       .  A
C885        C886   1.382       .  A
C885        H888   1.082       .  S
C886        C887   1.382       .  A
C887        H889   1.082       .  S
N890        C894   1.345       .  A
N891        C892   1.345       .  A
C892        H895   1.081       .  S
C893        C894   1.390       .  A
C893        C921   1.490       .  S
C894        H896   1.081       .  S
N897        N898   1.322       .  A
N897        C901   1.343       .  A
N897       Cu905   2.072       .  S
N898        C899   1.345       .  A
C899        C900   1.381       .  A
C899        H902   1.082       .  S
C900        C901   1.381       .  A
C901        H903   1.082       .  S
Cu904       N907   2.066       .  S
Cu905       N915   2.072       .  S
Cu906       N908   2.076       .  S
Cu906       N914   2.076       .  S
N907        N908   1.322       .  A
N907        C911   1.345       .  A
N908        C909   1.344       .  A
C909        C910   1.382       .  A
C909        H912   1.082       .  S
C910        C911   1.381       .  A
C911        H913   1.082       .  S
N914        C918   1.345       .  A
N915        C916   1.345       .  A
C916        H919   1.081       .  S
C917        C918   1.389       .  A
C917        C932   1.489       .  S
C918        H920   1.081       .  S
C921        C922   1.409   1_565  A
C922        C923   1.400   1_455  A
C922        H935   1.081       .  S
C923        H936   1.083       .  S
C924        C925   1.399       .  A
C924        C927   1.443       .  S
C925        C926   1.399   1_655  A
C925        H937   1.083       .  S
C926        H938   1.081       .  S
C927        C928   1.208       .  T
C928        C929   1.442       .  S
C929        C930   1.399       .  A
C930        C931   1.400       .  A
C930        H939   1.083       .  S
C931        H940   1.081       .  S
C932        C933   1.409       .  A
C933        C934   1.399       .  A
C933        H941   1.081       .  S
C934        H942   1.084       .  S
C943        C944   1.407       .  A
C943        C948   1.408       .  A
C944        C945   1.398       .  A
C944        H957   1.082       .  S
C945        C946   1.399       .  A
C945        H958   1.084       .  S
C946        C947   1.400       .  A
C946        C949   1.441       .  S
C947        C948   1.399       .  A
C947        H959   1.083       .  S
C948        H960   1.082       .  S
C949        C950   1.207       .  T
C950        C951   1.441       .  S
C951        C952   1.399       .  A
C951        C956   1.399       .  A
C952        C953   1.399       .  A
C952        H961   1.084       .  S
C953        C954   1.409       .  A
C953        H962   1.081       .  S
C954        C955   1.409       .  A
C955        C956   1.399       .  A
C955        H963   1.081       .  S
C956        H964   1.084       .  S
C965        C966   1.409       .  A
C965        C970   1.409       .  A
C966        C967   1.400       .  A
C966        H979   1.081       .  S
C967        C968   1.399       .  A
C967        H980   1.084       .  S
C968        C969   1.399       .  A
C968        C971   1.443       .  S
C969        C970   1.400       .  A
C969        H981   1.083       .  S
C970        H982   1.081       .  S
C971        C972   1.208       .  T
C972        C973   1.443       .  S
C973        C974   1.399       .  A
C973        C978   1.399       .  A
C974        C975   1.400       .  A
C974        H983   1.083       .  S
C975        C976   1.409       .  A
C975        H984   1.081       .  S
C976        C977   1.409       .  A
C977        C978   1.399       .  A
C977        H985   1.081       .  S
C978        H986   1.083       .  S
C987        C992   1.409       .  A
C988        C989   1.399   1_455  A
C988       H1001   1.082       .  S
C989       H1002   1.083       .  S
C990        C991   1.399       .  A
C990        C993   1.441       .  S
C991        C992   1.399   1_655  A
C991       H1003   1.083       .  S
C992       H1004   1.081       .  S
C993        C994   1.207       .  T
C994        C995   1.441       .  S
C995        C996   1.399   1_565  A
C996        C997   1.399       .  A
C996       H1005   1.083       .  S
C997        C998   1.407   1_545  A
C997       H1006   1.082       .  S
C999       C1000   1.400       .  A
C999       H1007   1.082       .  S
C1000      H1008   1.083       .  S
N1009      N1010   1.322       .  A
N1009      C1013   1.344       .  A
N1009     Cu1017   2.075       .  S
N1010      C1011   1.345       .  A
N1010     Cu1016   2.069       .  S
C1011      C1012   1.381       .  A
C1011      H1014   1.082       .  S
C1012      C1013   1.382       .  A
C1012      C1207   1.466       .  S
C1013      H1015   1.082       .  S
Cu1017     N1027   2.075       .  S
Cu1018     N1020   2.074       .  S
Cu1018     N1026   2.074       .  S
N1019      N1020   1.323       .  A
N1019      C1023   1.345       .  A
N1020      C1021   1.344       .  A
C1021      C1022   1.382       .  A
C1021      H1024   1.082       .  S
C1022      C1023   1.382       .  A
C1022      C1068   1.466       .  S
C1023      H1025   1.082       .  S
N1026      C1030   1.345       .  A
N1027      C1028   1.345       .  A
C1028      H1031   1.081       .  S
C1029      C1030   1.389       .  A
C1029      C1323   1.489       .  S
C1030      H1032   1.081       .  S
N1033      N1034   1.323       .  A
N1033      C1037   1.345       .  A
N1033     Cu1041   2.076       .  S
N1034      C1035   1.345       .  A
N1034     Cu1040   2.072       .  S
C1035      C1036   1.382       .  A
C1035      H1038   1.082       .  S
C1036      C1037   1.382       .  A
C1036      C1131   1.467       .  S
C1037      H1039   1.082       .  S
Cu1041     N1051   2.076       .  S
Cu1042     N1044   2.075       .  S
Cu1042     N1050   2.076       .  S
N1043      N1044   1.322       .  A
N1043      C1047   1.345       .  A
N1044      C1045   1.345       .  A
C1045      C1046   1.382       .  A
C1045      H1048   1.082       .  S
C1046      C1047   1.382       .  A
C1046      C1192   1.467       .  S
C1047      H1049   1.082       .  S
N1050      C1054   1.345       .  A
N1051      C1052   1.345       .  A
C1052      C1053   1.387       .  A
C1052      H1055   1.082       .  S
C1053      C1334   1.484       .  S
C1054      H1056   1.081       .  S
O1057     Cu1065   2.002       .  S
O1057      C1067   1.277       .  A
O1058     Cu1065   2.016       .  S
O1058      C1068   1.278       .  A
O1059     Cu1065   2.004       .  S
O1059      C1069   1.276       .  A
O1060     Cu1065   2.014       .  S
O1060      C1070   1.278       .  A
O1061     Cu1066   2.003       .  S
O1061      C1070   1.276       .  A
O1062     Cu1066   2.017       .  S
O1062      C1069   1.279       .  A
O1063     Cu1066   2.002       .  S
O1063      C1068   1.276       .  A
O1064     Cu1066   2.014       .  S
O1064      C1067   1.278       .  A
Cu1065    Cu1066   2.377       .  S
C1067      C1136   1.466       .  S
C1069      C1074   1.468       .  S
C1070      C1222   1.466       .  S
N1071      N1072   1.323       .  A
N1071      C1075   1.345       .  A
N1071     Cu1079   2.078       .  S
N1072      C1073   1.345       .  A
N1072     Cu1078   2.071       .  S
C1073      C1074   1.382       .  A
C1073      H1076   1.082       .  S
C1074      C1075   1.383       .  A
C1075      H1077   1.082       .  S
Cu1078     N1081   2.071       .  S
Cu1079     N1089   2.078       .  S
Cu1080     N1082   2.078       .  S
Cu1080     N1088   2.078       .  S
N1081      N1082   1.323       .  A
N1081      C1085   1.345       .  A
N1082      C1083   1.345       .  A
C1083      C1084   1.383       .  A
C1083      H1086   1.082       .  S
C1084      C1085   1.382       .  A
C1084      C1206   1.468       .  S
C1085      H1087   1.082       .  S
N1088      N1089   1.321       .  A
N1088      C1092   1.345       .  A
N1089      C1090   1.345       .  A
C1090      C1091   1.390       .  A
C1090      H1093   1.081       .  S
C1091      C1092   1.390       .  A
C1091      C1301   1.490       .  S
C1092      H1094   1.081       .  S
N1095      N1096   1.323       .  A
N1095      C1099   1.343       .  A
N1095     Cu1103   2.070       .  S
N1096      C1097   1.346       .  A
N1096     Cu1102   2.072       .  S
C1097      C1098   1.382       .  A
C1097      H1100   1.082       .  S
C1098      C1099   1.380       .  A
C1098      C1193   1.464       .  S
C1099      H1101   1.082       .  S
Cu1102     N1105   2.072       .  S
Cu1103     N1113   2.071       .  S
Cu1104     N1106   2.071       .  S
Cu1104     N1112   2.071       .  S
N1105      N1106   1.323       .  A
N1105      C1109   1.345       .  A
N1106      C1107   1.344       .  A
C1107      C1108   1.380       .  A
C1107      H1110   1.082       .  S
C1108      C1109   1.382       .  A
C1108      C1130   1.464       .  S
C1109      H1111   1.082       .  S
N1112      N1113   1.319       .  A
N1112      C1116   1.345       .  A
N1113      C1114   1.344       .  A
C1114      C1115   1.390       .  A
C1114      H1117   1.081       .  S
C1115      C1116   1.390       .  A
C1115      C1312   1.489       .  S
C1116      H1118   1.081       .  S
O1119     Cu1127   1.998       .  S
O1119      C1129   1.276       .  A
O1120      C1130   1.277       .  A
O1121      C1131   1.276       .  A
O1122     Cu1127   2.017       .  S
O1122      C1132   1.279       .  A
O1123     Cu1128   2.002       .  S
O1123      C1132   1.276       .  A
O1124      C1131   1.278       .  A
O1125      C1130   1.277       .  A
O1126     Cu1128   2.014       .  S
O1126      C1129   1.278       .  A
Cu1127    Cu1128   2.378       .  S
C1129      C1246   1.464       .  S
C1132      C1160   1.467       .  S
N1133      N1134   1.323       .  A
N1133      C1137   1.344       .  A
N1133     Cu1141   2.070       .  S
N1134      C1135   1.346       .  A
N1134     Cu1140   2.075       .  S
C1135      C1136   1.383       .  A
C1135      H1138   1.082       .  S
C1136      C1137   1.381       .  A
C1137      H1139   1.082       .  S
Cu1140     N1143   2.075       .  S
Cu1141     N1151   2.071       .  S
Cu1142     N1144   2.071       .  S
Cu1142     N1150   2.072       .  S
N1143      N1144   1.323       .  A
N1143      C1147   1.346       .  A
N1144      C1145   1.344       .  A
C1145      C1146   1.381       .  A
C1145      H1148   1.082       .  S
C1146      C1147   1.382       .  A
C1146      C1208   1.466       .  S
C1147      H1149   1.082       .  S
N1150      N1151   1.320       .  A
N1150      C1154   1.344       .  A
N1151      C1152   1.344       .  A
C1152      C1153   1.388       .  A
C1152      H1155   1.081       .  S
C1153      C1154   1.388       .  A
C1153      C1279   1.486       .  S
C1154      H1156   1.081       .  S
N1157      N1158   1.323       .  A
N1157      C1161   1.345       .  A
N1157     Cu1165   2.078       .  S
N1158      C1159   1.345       .  A
N1158     Cu1164   2.070       .  S
C1159      C1160   1.381       .  A
C1159      H1162   1.082       .  S
C1160      C1161   1.383       .  A
C1161      H1163   1.082       .  S
Cu1164     N1167   2.070       .  S
Cu1165     N1175   2.077       .  S
Cu1166     N1168   2.076       .  S
Cu1166     N1174   2.076       .  S
N1167      N1168   1.323       .  A
N1167      C1171   1.345       .  A
N1168      C1169   1.345       .  A
C1169      C1170   1.383       .  A
C1169      H1172   1.082       .  S
C1170      C1171   1.381       .  A
C1170      C1191   1.467       .  S
C1171      H1173   1.082       .  S
N1174      N1175   1.321       .  A
N1174      C1178   1.345       .  A
N1175      C1176   1.345       .  A
C1176      C1177   1.387       .  A
C1176      H1179   1.082       .  S
C1177      C1178   1.387       .  A
C1177      C1290   1.484       .  S
C1178      H1180   1.082       .  S
O1181     Cu1189   2.002       .  S
O1181      C1191   1.276       .  A
O1182     Cu1189   2.014       .  S
O1182      C1192   1.278       .  A
O1183     Cu1189   2.003       .  S
O1183      C1193   1.277       .  A
O1184     Cu1189   2.016       .  S
O1184      C1194   1.278       .  A
O1185     Cu1190   1.996       .  S
O1185      C1194   1.276       .  A
O1186     Cu1190   2.009       .  S
O1186      C1193   1.277       .  A
O1187     Cu1190   2.003       .  S
O1187      C1192   1.277       .  A
O1188     Cu1190   2.016       .  S
O1188      C1191   1.279       .  A
Cu1189    Cu1190   2.378       .  S
C1194      C1236   1.464       .  S
O1195     Cu1203   2.002       .  S
O1195      C1205   1.276       .  A
O1196      C1206   1.279       .  A
O1197      C1207   1.276       .  A
O1198     Cu1203   2.013       .  S
O1198      C1208   1.278       .  A
O1199     Cu1204   2.004       .  S
O1199      C1208   1.277       .  A
O1200      C1207   1.278       .  A
O1201      C1206   1.276       .  A
O1202     Cu1204   2.013       .  S
O1202      C1205   1.278       .  A
Cu1203    Cu1204   2.377       .  S
C1205      C1212   1.466       .  S
N1209      N1210   1.323       .  A
N1209      C1213   1.345       .  A
N1209     Cu1217   2.074       .  S
N1210      C1211   1.345       .  A
C1211      C1212   1.382       .  A
C1211      H1214   1.082       .  S
C1212      C1213   1.382       .  A
C1213      H1215   1.082       .  S
Cu1216     N1219   2.069       .  S
Cu1217     N1227   2.075       .  S
Cu1218     N1220   2.076       .  S
Cu1218     N1226   2.076       .  S
N1219      N1220   1.322       .  A
N1219      C1223   1.345       .  A
N1220      C1221   1.345       .  A
C1221      C1222   1.382       .  A
C1221      H1224   1.082       .  S
C1222      C1223   1.381       .  A
C1223      H1225   1.082       .  S
N1226      C1230   1.345       .  A
N1227      C1228   1.345       .  A
C1228      H1231   1.081       .  S
C1229      C1230   1.389       .  A
C1229      C1257   1.487       .  S
C1230      H1232   1.081       .  S
N1233      N1234   1.322       .  A
N1233      C1237   1.343       .  A
N1233     Cu1241   2.073       .  S
N1234      C1235   1.346       .  A
C1235      C1236   1.381       .  A
C1235      H1238   1.082       .  S
C1236      C1237   1.381       .  A
C1237      H1239   1.082       .  S
Cu1240     N1243   2.067       .  S
Cu1241     N1251   2.073       .  S
Cu1242     N1244   2.073       .  S
Cu1242     N1250   2.074       .  S
N1243      N1244   1.322       .  A
N1243      C1247   1.345       .  A
N1244      C1245   1.344       .  A
C1245      C1246   1.382       .  A
C1245      H1248   1.082       .  S
C1246      C1247   1.381       .  A
C1247      H1249   1.082       .  S
N1250      C1254   1.344       .  A
N1251      C1252   1.345       .  A
C1252      H1255   1.081       .  S
C1253      C1254   1.389       .  A
C1253      C1268   1.488       .  S
C1254      H1256   1.081       .  S
C1257      C1258   1.409   1_565  A
C1258      C1259   1.399   1_455  A
C1258      H1271   1.081       .  S
C1259      H1272   1.084       .  S
C1260      C1261   1.399       .  A
C1260      C1263   1.442       .  S
C1261      C1262   1.399   1_655  A
C1261      H1273   1.083       .  S
C1262      H1274   1.082       .  S
C1263      C1264   1.207       .  T
C1264      C1265   1.442       .  S
C1265      C1266   1.399       .  A
C1266      C1267   1.399       .  A
C1266      H1275   1.084       .  S
C1267      H1276   1.081       .  S
C1268      C1269   1.409       .  A
C1269      C1270   1.399       .  A
C1269      H1277   1.081       .  S
C1270      H1278   1.084       .  S
C1279      C1280   1.408       .  A
C1279      C1284   1.408       .  A
C1280      C1281   1.398       .  A
C1280      H1293   1.081       .  S
C1281      C1282   1.399       .  A
C1281      H1294   1.084       .  S
C1282      C1283   1.399       .  A
C1282      C1285   1.441       .  S
C1283      C1284   1.399       .  A
C1283      H1295   1.084       .  S
C1284      H1296   1.082       .  S
C1285      C1286   1.207       .  T
C1286      C1287   1.441       .  S
C1287      C1288   1.400       .  A
C1287      C1292   1.400       .  A
C1288      C1289   1.399       .  A
C1288      H1297   1.084       .  S
C1289      C1290   1.407       .  A
C1289      H1298   1.082       .  S
C1290      C1291   1.407       .  A
C1291      C1292   1.399       .  A
C1291      H1299   1.082       .  S
C1292      H1300   1.084       .  S
C1301      C1302   1.409       .  A
C1301      C1306   1.409       .  A
C1302      C1303   1.400       .  A
C1302      H1315   1.081       .  S
C1303      C1304   1.399       .  A
C1303      H1316   1.084       .  S
C1304      C1305   1.399       .  A
C1304      C1307   1.442       .  S
C1305      C1306   1.400       .  A
C1305      H1317   1.083       .  S
C1306      H1318   1.081       .  S
C1307      C1308   1.207       .  T
C1308      C1309   1.442       .  S
C1309      C1310   1.399       .  A
C1309      C1314   1.399       .  A
C1310      C1311   1.399       .  A
C1310      H1319   1.083       .  S
C1311      C1312   1.409       .  A
C1311      H1320   1.081       .  S
C1312      C1313   1.409       .  A
C1313      C1314   1.399       .  A
C1313      H1321   1.081       .  S
C1314      H1322   1.083       .  S
C1323      C1328   1.409       .  A
C1324      C1325   1.399   1_455  A
C1324      H1337   1.081       .  S
C1325      H1338   1.083       .  S
C1326      C1327   1.399       .  A
C1326      C1329   1.441       .  S
C1327      C1328   1.399   1_655  A
C1327      H1339   1.083       .  S
C1328      H1340   1.081       .  S
C1329      C1330   1.207       .  T
C1330      C1331   1.441       .  S
C1331      C1332   1.400   1_565  A
C1332      C1333   1.399       .  A
C1332      H1341   1.083       .  S
C1333      C1334   1.407   1_545  A
C1333      H1342   1.082       .  S
C1335      C1336   1.399       .  A
C1335      H1343   1.082       .  S
C1336      H1344   1.083       .  S
