geometry optimzed in LAMMPS
_audit_creation_date              2020-12-01 
_audit_creation_method            'lammps2cif' 
_symmetry_space_group_name_H-M    'P1' 
_symmetry_Int_Tables_number       1 
_symmetry_cell_setting            triclinic 
loop_ 
_symmetry_equiv_pos_as_xyz 
  x,y,z 
_cell_length_a                    32.31091065 
_cell_length_b                    28.420098124252473 
_cell_length_c                    28.90740777018485 
_cell_angle_alpha                 90.88252990336113 
_cell_angle_beta                  91.42597479414768 
_cell_angle_gamma                 90.65243689275786 
loop_ 
_atom_site_label 
_atom_site_type_symbol 
_atom_site_fract_x 
_atom_site_fract_y 
_atom_site_fract_z 
_atom_site_charge 
O1          O  0.67796838  0.78964367  0.64614489    -0.81500
O2          O  0.83533248  0.71565652  0.76386465    -0.66200
O3          O  0.72900332  0.73138472  0.70264858    -1.12800
C4          C  0.68864738  0.80830826  0.83582426     1.05400
O5          O  0.81398058  0.71572263  0.83673601    -0.79400
O6          O  0.73273887  0.69149143  0.82321637    -0.67000
Ni7        Ni  0.72768431  0.75426405  0.64035583     1.34900
C8          C  0.69474587  0.69240082  0.81095897     0.84100
O9          O  0.80351601  0.68425712  0.68349254    -0.80000
O10         O  0.77640777  0.72206965  0.62371998    -0.90200
C11         C  0.84123203  0.70803978  0.80684329     0.83700
O12         O  0.76028423  0.80851271  0.65635253    -0.68400
O13         O  0.71125425  0.77801384  0.85552063    -0.87700
C14         C  0.79739530  0.80754052  0.67208594     0.84500
C15         C  0.80385767  0.69602096  0.64107951     1.06100
H16         H  0.77692226  0.79688610  0.77663362     0.37900
O17         O  0.76220971  0.76713489  0.77758628    -1.10400
O18         O  0.68154745  0.72290983  0.78208566    -0.67000
Ni19       Ni  0.70876791  0.77413776  0.74846141     1.26300
O20         O  0.80932015  0.77664158  0.70081205    -0.67300
O21         O  0.69127248  0.81784267  0.79349894    -0.79600
C22         C  0.65077252  0.79545452  0.67635893     0.83900
O23         O  0.65623549  0.78312753  0.71796676    -0.66700
Ni24       Ni  0.76217977  0.74728226  0.84067327     1.27400
Ni25       Ni  0.78310636  0.72444556  0.73164186     1.26100
H26         H  0.71406780  0.70176569  0.70343404     0.38400
C27         C  0.88037359  0.41770125  0.53220464     0.85800
C28         C  0.92517823  0.39994581  0.53624674    -0.54400
C29         C  0.95085195  0.41458570  0.50174517     0.08800
C30         C  0.92849404  0.44561522  0.46612799     0.19700
C31         C  0.88508932  0.47044198  0.52935524    -0.55100
C32         C  0.91042088  0.48599265  0.49548537     0.08900
C33         C  0.86639612  0.40045373  0.48404310    -0.54600
C34         C  0.89089200  0.41552995  0.44957373     0.09400
H35         H  0.93507759  0.37708135  0.56362946     0.14000
H36         H  0.94781243  0.45689885  0.43723660    -0.00300
H37         H  0.87056061  0.49255744  0.55484569     0.14300
H38         H  0.84028931  0.37658919  0.47771149     0.14100
C39         C  0.05892838  0.36722121  0.53007890     0.85800
C40         C  0.07542129  0.41799135  0.53342124    -0.54400
C41         C  0.06011825  0.44847964  0.50162273     0.08800
C42         C  0.02897920  0.42408890  0.46793906     0.19700
C43         C  0.01237444  0.37134900  0.53176317    -0.55100
C44         C  0.99578878  0.40217016  0.50049971     0.08900
C45         C  0.06480233  0.35045162  0.48041661    -0.54600
C46         C  0.05308132  0.38148446  0.44755307     0.09400
H47         H  0.09855329  0.42744889  0.55968662     0.14000
H48         H  0.01617010  0.44725525  0.44093187    -0.00300
H49         H  0.99381447  0.34951799  0.55307961     0.14300
H50         H  0.08343246  0.31991399  0.47213398     0.14100
C51         C  0.92270598  0.61949129  0.51657790     0.85800
C52         C  0.90472811  0.56990370  0.51981811    -0.54400
C53         C  0.92247118  0.53649454  0.49280440     0.08800
C54         C  0.95578746  0.55702398  0.46175430     0.19700
C55         C  0.96913131  0.61538990  0.52334838    -0.55100
C56         C  0.98704952  0.58222149  0.49570909     0.08900
C57         C  0.91705087  0.63014220  0.46491858    -0.54600
C58         C  0.93327810  0.59680269  0.43601762     0.09400
H59         H  0.87888393  0.56325946  0.54193349     0.14000
H60         H  0.96970270  0.53120729  0.43803673    -0.00300
H61         H  0.98593554  0.63828960  0.54761750     0.14300
H62         H  0.89653696  0.65672712  0.45128042     0.14100
C63         C  0.10081876  0.57256807  0.53802095     0.85800
C64         C  0.05580722  0.58818790  0.53732597    -0.54400
C65         C  0.03196442  0.57124972  0.50064556     0.08800
C66         C  0.05574224  0.53744222  0.46871823     0.19700
C67         C  0.09603270  0.51892104  0.53826066    -0.55100
C68         C  0.07242587  0.49964559  0.50235969     0.08900
C69         C  0.11738427  0.58341356  0.49075421    -0.54600
C70         C  0.09408977  0.56613521  0.45461255     0.09400
H71         H  0.04362317  0.60770468  0.56621988     0.14000
H72         H  0.03765119  0.52337524  0.43855224    -0.00300
H73         H  0.10615999  0.49899266  0.56757016     0.14300
H74         H  0.14508540  0.60472938  0.48600492     0.14100
C75         C  0.41817658  0.46933948  0.89385431     0.85800
C76         C  0.46547144  0.46861288  0.88848291    -0.54400
C77         C  0.48767271  0.50216045  0.91393307     0.08800
C78         C  0.45943595  0.53485566  0.94245734     0.19700
C79         C  0.41347901  0.46664288  0.94663497    -0.55100
C80         C  0.43409266  0.50083695  0.97304443     0.08900
C81         C  0.40698671  0.51949815  0.88141853    -0.54600
C82         C  0.42815771  0.55379110  0.90589706     0.09400
H83         H  0.48039049  0.44361723  0.86646334     0.14000
H84         H  0.47642572  0.56295902  0.96219660    -0.00300
H85         H  0.39569770  0.43824932  0.96101248     0.14300
H86         H  0.38507665  0.52755603  0.85360860     0.14100
C87         C  0.42444411  0.46665340  0.10338875     0.85800
C88         C  0.41800892  0.46396146  0.05025295    -0.54400
C89         C  0.43390250  0.50130596  0.02596848     0.08800
C90         C  0.45436675  0.53964815  0.05902615     0.19700
C91         C  0.47122170  0.47384299  0.10882234    -0.55100
C92         C  0.48793772  0.51202433  0.08660922     0.08900
C93         C  0.40551647  0.51349420  0.11677240    -0.54600
C94         C  0.42067724  0.55191306  0.09519357     0.09400
H95         H  0.40420034  0.43375131  0.03305671     0.14000
H96         H  0.46647298  0.57087426  0.04108362    -0.00300
H97         H  0.48913069  0.44765986  0.12673071     0.14300
H98         H  0.38109774  0.51615564  0.14187221     0.14100
C99         C  0.60310961  0.46895132  0.90631728     0.85800
C100        C  0.60624462  0.47660804  0.95904225    -0.54400
C101        C  0.58667930  0.51566578  0.97669817     0.08800
C102        C  0.56307331  0.54253607  0.93818049     0.19700
C103        C  0.55647234  0.46555175  0.89850756    -0.55100
C104        C  0.53444246  0.50356281  0.91459652     0.08900
C105        C  0.61617272  0.51510694  0.88578065    -0.54600
C106        C  0.59678414  0.55371765  0.90203339     0.09400
H107        H  0.61881677  0.44940433  0.98071511     0.14000
H108        H  0.54684897  0.57409664  0.95107287    -0.00300
H109        H  0.54246443  0.43290746  0.88629369     0.14300
H110        H  0.64148113  0.51751288  0.86173428     0.14100
C111        C  0.60682944  0.50252669  0.10715991     0.85800
C112        C  0.56058472  0.49404264  0.11320225    -0.54400
C113        C  0.53440071  0.52123215  0.08711671     0.08800
C114        C  0.55882298  0.55773279  0.05804514     0.19700
C115        C  0.61473793  0.50149703  0.05572669    -0.55100
C116        C  0.58818630  0.52642209  0.02842043     0.08900
C117        C  0.61270722  0.55403965  0.12000414    -0.54600
C118        C  0.58825079  0.58388466  0.09507335     0.09400
H119        H  0.55065063  0.46743037  0.13693479     0.14000
H120        H  0.53901155  0.58138555  0.03718426    -0.00300
H121        H  0.63984746  0.48059652  0.04267800     0.14300
H122        H  0.63506686  0.56734292  0.14560968     0.14100
C123        C  0.54210607  0.89068152  0.41157376     0.85800
C124        C  0.54259471  0.94433964  0.40489943    -0.54400
C125        C  0.50716292  0.96780864  0.41605757     0.08800
C126        C  0.47381364  0.93338517  0.43534643     0.19700
C127        C  0.53244730  0.88703033  0.46321433    -0.55100
C128        C  0.49585897  0.90719875  0.47529082     0.08900
C129        C  0.50307576  0.87316230  0.38544542    -0.54600
C130        C  0.46744075  0.89391870  0.39854360     0.09400
H131        H  0.57081429  0.96316625  0.39825029     0.14000
H132        H  0.44470905  0.95059238  0.44565592    -0.00300
H133        H  0.55258534  0.86934075  0.48775147     0.14300
H134        H  0.50350658  0.84520421  0.35940321     0.14100
C135        C  0.53968082  0.09929090  0.40410928     0.85800
C136        C  0.53860717  0.10307989  0.45697960    -0.54400
C137        C  0.50715594  0.07883368  0.47736808     0.08800
C138        C  0.47687025  0.05490959  0.44106642     0.19700
C139        C  0.53712748  0.04644137  0.39305919    -0.55100
C140        C  0.50584555  0.02161151  0.41366561     0.08900
C141        C  0.49771795  0.11864574  0.38959916    -0.54600
C142        C  0.46445429  0.09576023  0.40701491     0.09400
H143        H  0.55993655  0.12546700  0.47657146     0.14000
H144        H  0.45020002  0.03639250  0.45625563    -0.00300
H145        H  0.56013744  0.03052794  0.37137653     0.14300
H146        H  0.49428975  0.14793687  0.36614524     0.14100
C147        C  0.43111508  0.89525442  0.58592104     0.85800
C148        C  0.43951163  0.94846795  0.59459842    -0.54400
C149        C  0.47777522  0.96283844  0.58225211     0.08800
C150        C  0.50540621  0.92376965  0.56392599     0.19700
C151        C  0.44081076  0.88851294  0.53387938    -0.55100
C152        C  0.47988334  0.90401630  0.52278970     0.08900
C153        C  0.46685454  0.87152669  0.61264282    -0.54600
C154        C  0.50524678  0.88540485  0.60064945     0.09400
H155        H  0.41838044  0.97342942  0.60944633     0.14000
H156        H  0.53692021  0.93604660  0.55481647    -0.00300
H157        H  0.41855910  0.87463836  0.50828769     0.14300
H158        H  0.46237792  0.84523386  0.63898137     0.14100
C159        C  0.53752231  0.07522125  0.60835938     0.85800
C160        C  0.52549267  0.02376850  0.61116126    -0.54400
C161        C  0.49144504  0.01187219  0.58520777     0.08800
C162        C  0.47159376  0.05282925  0.55797130     0.19700
C163        C  0.54146467  0.08499098  0.55657077    -0.55100
C164        C  0.50731917  0.07301821  0.52921552     0.08900
C165        C  0.49880690  0.10280182  0.62088084    -0.54600
C166        C  0.46455571  0.09133062  0.59505449     0.09400
H167        H  0.54282752  0.99853106  0.63155755     0.14000
H168        H  0.44334861  0.04276207  0.53738565    -0.00300
H169        H  0.56966031  0.09993255  0.54355340     0.14300
H170        H  0.49810246  0.13132533  0.64620564     0.14100
O171        O  0.29771214  0.19068485  0.65075961    -0.81500
O172        O  0.17502418  0.28588955  0.78920886    -0.66200
O173        O  0.25963637  0.26219218  0.70213400    -1.12800
C174        C  0.32487839  0.18814014  0.82896348     1.05400
O175        O  0.22069873  0.30407767  0.84564683    -0.79400
O176        O  0.30224473  0.29442109  0.84163191    -0.67000
Ni177      Ni  0.24708389  0.22475180  0.64872287     1.34900
C178        C  0.32036391  0.31292515  0.80781159     0.84100
O179        O  0.18447390  0.30614055  0.69943128    -0.80000
O180        O  0.19542682  0.25570551  0.64023133    -0.90200
C181        C  0.18481074  0.30689886  0.82719767     0.83700
O182        O  0.22212701  0.17485001  0.68132262    -0.68400
O183        O  0.29409349  0.19969165  0.85323085    -0.87700
C184        C  0.18890762  0.17923501  0.70295156     0.84500
C185        C  0.17729123  0.29069095  0.65836705     1.06100
H186        H  0.23773824  0.20372274  0.78389694     0.37900
O187        O  0.24909336  0.23531825  0.78412568    -1.10400
O188        O  0.31783474  0.29533077  0.76657768    -0.67000
Ni189      Ni  0.29588784  0.23360194  0.74536600     1.26300
O190        O  0.18124137  0.21643035  0.72635542    -0.67300
O191        O  0.33116659  0.20325426  0.78872102    -0.79600
C192        C  0.33337404  0.19940439  0.66821507     0.83900
O193        O  0.33921745  0.22825317  0.70190740    -0.66700
Ni194      Ni  0.25713476  0.25131686  0.84727191     1.27400
Ni195      Ni  0.21545477  0.27178846  0.74380570     1.26100
H196        H  0.27078188  0.29222037  0.69288777     0.38400
O197        O  0.20011938  0.85438291  0.32047837    -0.81500
O198        O  0.32814007  0.72466474  0.21181510    -0.66200
O199        O  0.23340320  0.79358002  0.25323157    -1.12800
C200        C  0.19064197  0.65953734  0.32719696     1.05400
O201        O  0.29947256  0.65325920  0.21239738    -0.79400
O202        O  0.21920784  0.67472724  0.20661421    -0.67000
Ni203      Ni  0.24013209  0.85816846  0.27259940     1.34900
C204        C  0.18541772  0.69537210  0.21382382     0.84100
O205        O  0.29380376  0.80505483  0.18911031    -0.80000
O206        O  0.28133659  0.87161146  0.22757661    -0.90200
C207        C  0.32704481  0.68161128  0.19877790     0.83700
O208        O  0.28269050  0.84585239  0.31668222    -0.68400
O209        O  0.20779789  0.63941354  0.29322166    -0.87700
C210        C  0.31632430  0.82491214  0.30910872     0.84500
C211        C  0.30001908  0.84856805  0.19665679     1.06100
H212        H  0.28478200  0.71379405  0.30412009     0.37900
O213        O  0.26491787  0.71470466  0.27871347    -1.10400
O214        O  0.17944967  0.72056639  0.24990214    -0.67000
Ni215      Ni  0.21627907  0.74830496  0.29714220     1.26300
O216        O  0.31951952  0.79190778  0.27854715    -0.67300
O217        O  0.19960830  0.70152402  0.33947287    -0.79600
C218        C  0.17170231  0.82598726  0.33191894     0.83900
O219        O  0.16951530  0.78394553  0.31666362    -0.66700
Ni220      Ni  0.25449948  0.65198723  0.25447660     1.27400
Ni221      Ni  0.28118027  0.76012075  0.23389404     1.26100
H222        H  0.21384053  0.79354494  0.22737269     0.38400
O223        O  0.67895028  0.31699651  0.20114729    -0.81500
O224        O  0.77794641  0.15308269  0.27156046    -0.66200
O225        O  0.72961948  0.27378347  0.26386407    -1.12800
C226        C  0.84164799  0.30823226  0.16427717     1.05400
O227        O  0.84033629  0.18614712  0.28155634    -0.79400
O228        O  0.85410264  0.27893711  0.27634893    -0.67000
Ni229      Ni  0.67224673  0.28248011  0.25662189     1.34900
C230        C  0.83420614  0.31578627  0.28650078     0.84100
O231        O  0.70964917  0.18968278  0.30949543    -0.80000
O232        O  0.66216086  0.24732852  0.31103412    -0.90200
C233        C  0.81475852  0.15259854  0.28814460     0.83700
O234        O  0.65855978  0.22772897  0.22060879    -0.68400
O235        O  0.85908399  0.27290090  0.18292561    -0.87700
C236        C  0.67810215  0.19195120  0.20667540     0.84500
C237        C  0.67482942  0.20652121  0.32186946     1.06100
H238        H  0.78258948  0.22063658  0.19256112     0.37900
O239        O  0.78881838  0.23627535  0.22186430    -1.10400
O240        O  0.80007703  0.32615001  0.26656290    -0.67000
Ni241      Ni  0.76602886  0.29772814  0.21796295     1.26300
O242        O  0.71616857  0.18564241  0.21731058    -0.67300
O243        O  0.80473902  0.32077502  0.17315152    -0.79600
C244        C  0.70026548  0.35460102  0.19839388     0.83900
O245        O  0.73755617  0.35619296  0.21329413    -0.66700
Ni246      Ni  0.84671229  0.22972594  0.23168167     1.27400
Ni247      Ni  0.75085320  0.21228332  0.26677188     1.26100
H248        H  0.73701250  0.28888637  0.29312809     0.38400
O249        O  0.76373844  0.30097511  0.64625309    -0.81500
O250        O  0.73308618  0.15838868  0.80607672    -0.66200
O251        O  0.72558859  0.26086857  0.72237780    -1.12800
C252        C  0.83100397  0.32086485  0.82491887     1.05400
O253        O  0.72361673  0.21214923  0.86028459    -0.79400
O254        O  0.73569852  0.30374350  0.85921666    -0.67000
Ni255      Ni  0.72517567  0.25115731  0.65704809     1.34900
C256        C  0.72020540  0.33198852  0.83044546     0.84100
O257        O  0.68665063  0.17326216  0.73245844    -0.80000
O258        O  0.68618461  0.20038112  0.66003823    -0.90200
C259        C  0.72119000  0.16991684  0.84612373     0.83700
O260        O  0.76987030  0.20863484  0.65624075    -0.68400
O261        O  0.81817962  0.29136779  0.85410647    -0.87700
C262        C  0.78455669  0.17857053  0.68380102     0.84500
C263        C  0.67339943  0.17297153  0.69102654     1.06100
H264        H  0.79928663  0.22821943  0.78486256     0.37900
O265        O  0.77322662  0.24319975  0.79089815    -1.10400
O266        O  0.72897565  0.33085571  0.78770145    -0.67000
Ni267      Ni  0.76963783  0.29623275  0.75254684     1.26300
O268        O  0.77106251  0.17391728  0.72486275    -0.67300
O269        O  0.81417450  0.32830450  0.78529261    -0.79600
C270        C  0.77441722  0.33889040  0.66717105     0.83900
O271        O  0.76797985  0.34640224  0.70971416    -0.66700
Ni272      Ni  0.77116934  0.25127738  0.85564341     1.27400
Ni273      Ni  0.73026769  0.20747949  0.76168459     1.26100
H274        H  0.69962132  0.27571435  0.72910904     0.38400
C275        C  0.58377993  0.89765322  0.96787128     0.85800
C276        C  0.54026077  0.88407586  0.98265310    -0.54400
C277        C  0.52840880  0.90702626  0.02200427     0.08800
C278        C  0.56156644  0.94130204  0.04376191     0.19700
C279        C  0.58012863  0.95111263  0.96409497    -0.55100
C280        C  0.57198622  0.97439220  0.00426708     0.08900
C281        C  0.61227272  0.88966272  0.01019375    -0.54600
C282        C  0.60080818  0.91207258  0.04967814     0.09400
H283        H  0.51850424  0.86409908  0.96072578     0.14000
H284        H  0.55216242  0.95986318  0.07582031    -0.00300
H285        H  0.58132032  0.96976984  0.93179396     0.14300
H286        H  0.64009415  0.86858383  0.00871772     0.14100
C287        C  0.61069622  0.09843955  0.98005056     0.85800
C288        C  0.60794970  0.04535027  0.97833720    -0.54400
C289        C  0.58130548  0.02546344  0.00831240     0.08800
C290        C  0.56166675  0.06134578  0.04123271     0.19700
C291        C  0.56580917  0.11587741  0.97698777    -0.55100
C292        C  0.53933880  0.09526191  0.00774238     0.08900
C293        C  0.62326138  0.11024900  0.03006640    -0.54600
C294        C  0.59871698  0.09040954  0.06211747     0.09400
H295        H  0.62628939  0.02507309  0.95432521     0.14000
H296        H  0.54174017  0.04508814  0.06734295    -0.00300
H297        H  0.55608079  0.14231063  0.95263470     0.14300
H298        H  0.64795568  0.13463613  0.04044902     0.14100
C299        C  0.42412885  0.92052595  0.07853452     0.85800
C300        C  0.46867966  0.90377803  0.07362421    -0.54400
C301        C  0.48441729  0.91214707  0.03134704     0.08800
C302        C  0.45505940  0.93835939  0.99803387     0.19700
C303        C  0.42817602  0.97368579  0.06821587    -0.55100
C304        C  0.44419752  0.98244754  0.02587679     0.08900
C305        C  0.39950456  0.89940972  0.03701163    -0.54600
C306        C  0.41444422  0.91008210  0.99509598     0.09400
H307        H  0.48741234  0.89067933  0.10193863     0.14000
H308        H  0.46840499  0.94602449  0.96385862    -0.00300
H309        H  0.41987350  0.00209606  0.09146690     0.14300
H310        H  0.37063735  0.87988144  0.04055205     0.14100
C311        C  0.43004230  0.09162282  0.95284898     0.85800
C312        C  0.47548238  0.10746980  0.95956599    -0.54400
C313        C  0.49307062  0.09738530  0.00191972     0.08800
C314        C  0.46201253  0.07336531  0.03464119     0.19700
C315        C  0.43188567  0.03901695  0.96353927    -0.55100
C316        C  0.44706498  0.02974468  0.00677880     0.08900
C317        C  0.40763341  0.11458949  0.99331082    -0.54600
C318        C  0.42340922  0.10453070  0.03587793     0.09400
H319        H  0.49414955  0.11757874  0.93086265     0.14000
H320        H  0.47455089  0.06531148  0.06964561    -0.00300
H321        H  0.42150269  0.01133644  0.93973381     0.14300
H322        H  0.37952503  0.13485737  0.98872739     0.14100
O323        O  0.30859294  0.66282442  0.80935594    -0.81500
O324        O  0.16769138  0.78454718  0.73024147    -0.66200
O325        O  0.26905102  0.71837049  0.74299865    -1.12800
C326        C  0.31275227  0.84705468  0.83902749     1.05400
O327        O  0.19958690  0.85363767  0.72312746    -0.79400
O328        O  0.28163898  0.86095361  0.72769579    -0.67000
Ni329      Ni  0.27148952  0.65363772  0.75634883     1.34900
C330        C  0.30950948  0.83378788  0.71342761     0.84100
O331        O  0.19557020  0.70435882  0.69411516    -0.80000
O332        O  0.23490416  0.64026567  0.70413581    -0.90200
C333        C  0.16944578  0.82550066  0.71332339     0.83700
O334        O  0.22620652  0.64938253  0.79703650    -0.68400
O335        O  0.28186971  0.86996708  0.82279432    -0.87700
C336        C  0.19563570  0.67535440  0.80564824     0.84500
C337        C  0.20553903  0.66218782  0.68368044     1.06100
H338        H  0.22995513  0.78685067  0.81232406     0.37900
O339        O  0.24253416  0.79196531  0.78282108    -1.10400
O340        O  0.31766493  0.79462597  0.73273728    -0.67000
Ni341      Ni  0.29507731  0.76146432  0.78502168     1.26300
O342        O  0.19045342  0.71552697  0.78733334    -0.67300
O343        O  0.32046499  0.80515291  0.82700053    -0.79600
C344        C  0.34199136  0.68710867  0.81143096     0.83900
O345        O  0.34488444  0.72559043  0.78986624    -0.66700
Ni346      Ni  0.24070436  0.85821637  0.77347631     1.27400
Ni347      Ni  0.21752222  0.74912841  0.73821749     1.26100
H348        H  0.28188329  0.72139737  0.71333646     0.38400
C349        C  0.89948535  0.03853383  0.60933661     0.85800
C350        C  0.94600357  0.03830216  0.61832454    -0.54400
C351        C  0.96661730  0.00049559  0.59975371     0.08800
C352        C  0.93681876  0.96545257  0.57247084     0.19700
C353        C  0.89465791  0.03355770  0.55607139    -0.55100
C354        C  0.91361918  0.99539519  0.53594338     0.08900
C355        C  0.88392562  0.99134094  0.62590277    -0.54600
C356        C  0.90251011  0.95328314  0.60700097     0.09400
H357        H  0.96072120  0.06748285  0.63698926     0.14000
H358        H  0.95194455  0.93400576  0.55772657    -0.00300
H359        H  0.87607502  0.05741844  0.53623510     0.14300
H360        H  0.85738878  0.98784921  0.64804845     0.14100
C361        C  0.08264879  0.02970014  0.62466025     0.85800
C362        C  0.08810257  0.03330380  0.57218005    -0.54400
C363        C  0.06600467  0.00114400  0.54494182     0.08800
C364        C  0.04154575  0.96545863  0.57452919     0.19700
C365        C  0.03590744  0.02887587  0.63162893    -0.55100
C366        C  0.01335808  0.99739961  0.60419734     0.08900
C367        C  0.09531562  0.97926003  0.63463462    -0.54600
C368        C  0.07440648  0.94542703  0.60957037     0.09400
H369        H  0.10856512  0.05985600  0.55870324     0.14000
H370        H  0.02447357  0.93795421  0.55408166    -0.00300
H371        H  0.02240290  0.05201336  0.65698591     0.14300
H372        H  0.11911874  0.96899931  0.65920371     0.14100
C373        C  0.89142427  0.00942561  0.40494614     0.85800
C374        C  0.88356318  0.01125868  0.45676873    -0.54400
C375        C  0.90947599  0.98494015  0.48412405     0.08800
C376        C  0.93811399  0.95291921  0.45452423     0.19700
C377        C  0.93808298  0.01701024  0.39995555    -0.55100
C378        C  0.96326876  0.98947052  0.42684850     0.08900
C379        C  0.88476210  0.95759929  0.39266512    -0.54600
C380        C  0.90883893  0.92722711  0.41701230     0.09400
H381        H  0.85889100  0.03257695  0.46995137     0.14000
H382        H  0.95743978  0.92873414  0.47525458    -0.00300
H383        H  0.94940773  0.04325477  0.37653698     0.14300
H384        H  0.86264190  0.94415738  0.36696701     0.14100
C385        C  0.07499569  0.04102323  0.41638975     0.85800
C386        C  0.02781595  0.03718794  0.41068143    -0.54400
C387        C  0.00947880  0.99884991  0.43098870     0.08800
C388        C  0.04129979  0.96880880  0.45849916     0.19700
C389        C  0.08129250  0.04170107  0.46953226    -0.55100
C390        C  0.06409698  0.00422969  0.49241398     0.08900
C391        C  0.09122882  0.99310698  0.40152982    -0.54600
C392        C  0.07396556  0.95553822  0.42260398     0.09400
H393        H  0.01078103  0.06466245  0.39360974     0.14000
H394        H  0.02780546  0.93771272  0.47534548    -0.00300
H395        H  0.09598843  0.07076143  0.48782537     0.14300
H396        H  0.11530121  0.98909392  0.37618078     0.14100
O397        O  0.80743692  0.71354058  0.14132886    -0.81500
O398        O  0.68087851  0.78628045  0.28685875    -0.66200
O399        O  0.77717772  0.77036947  0.21541604    -1.12800
C400        C  0.81383447  0.65026898  0.31605123     1.05400
O401        O  0.70561409  0.76359310  0.35560933    -0.79400
O402        O  0.79000382  0.76751794  0.35125878    -0.67000
Ni403      Ni  0.77255872  0.76815924  0.14901565     1.34900
C404        C  0.82369362  0.77297295  0.32989523     0.84100
O405        O  0.71261757  0.83449068  0.21933494    -0.80000
O406        O  0.73783924  0.82256518  0.14849663    -0.90200
C407        C  0.67933721  0.78536402  0.33057340     0.83700
O408        O  0.72425302  0.72868242  0.14242182    -0.68400
O409        O  0.79285797  0.67226649  0.34594903    -0.87700
C410        C  0.69217445  0.72514557  0.16683077     0.84500
C411        C  0.71549858  0.84494152  0.17691665     1.06100
H412        H  0.72651559  0.69544762  0.26913291     0.37900
O413        O  0.74501076  0.72076395  0.27914094    -1.10400
O414        O  0.82978722  0.75270524  0.29038668    -0.67000
Ni415      Ni  0.79501745  0.71490247  0.24540474     1.26300
O416        O  0.69093719  0.74278730  0.20763197    -0.67300
O417        O  0.81114770  0.65825149  0.27340550    -0.79600
C418        C  0.83833963  0.69899061  0.16500902     0.83900
O419        O  0.84245682  0.70823690  0.20797426    -0.66700
Ni420      Ni  0.74934407  0.71852947  0.34565488     1.27400
Ni421      Ni  0.72807795  0.77802364  0.24980408     1.26100
H422        H  0.79596825  0.79595835  0.22381235     0.38400
C423        C  0.98001491  0.61345728  0.90000238     0.85800
C424        C  0.98202471  0.56058274  0.88892214    -0.54400
C425        C  0.01469230  0.53685623  0.90874750     0.08800
C426        C  0.04350461  0.57015494  0.93805049     0.19700
C427        C  0.98034768  0.61379227  0.95354753    -0.55100
C428        C  0.01389819  0.59182009  0.97351520     0.08900
C429        C  0.02187973  0.63293606  0.88650806    -0.54600
C430        C  0.05504709  0.61145958  0.90612859     0.09400
H431        H  0.95569697  0.54288841  0.87307060     0.14000
H432        H  0.07071230  0.55272215  0.95409447    -0.00300
H433        H  0.95605348  0.62957211  0.97353108     0.14300
H434        H  0.02508470  0.66097189  0.86162315     0.14100
C435        C  0.05308702  0.61204658  0.09951642     0.85800
C436        C  0.05226286  0.55952742  0.10970355    -0.54400
C437        C  0.02052874  0.53393096  0.08912644     0.08800
C438        C  0.99169093  0.56535789  0.05854663     0.19700
C439        C  0.05373092  0.61329644  0.04594629    -0.55100
C440        C  0.02128109  0.58956292  0.02448893     0.08900
C441        C  0.01050992  0.63048950  0.11070130    -0.54600
C442        C  0.97836913  0.60647491  0.09040701     0.09400
H443        H  0.07718421  0.54438265  0.12996507     0.14000
H444        H  0.96525884  0.54664019  0.04103679    -0.00300
H445        H  0.07603100  0.63236663  0.02594361     0.14300
H446        H  0.00599021  0.66186731  0.13188291     0.14100
C447        C  0.98014330  0.40642283  0.90265163     0.85800
C448        C  0.98263282  0.40464672  0.95551327    -0.54400
C449        C  0.01567352  0.42808719  0.97507132     0.08800
C450        C  0.04395438  0.45215058  0.93977033     0.19700
C451        C  0.98277983  0.45799562  0.88988727    -0.55100
C452        C  0.01431074  0.48370939  0.91073908     0.08900
C453        C  0.02195328  0.38750061  0.88767635    -0.54600
C454        C  0.05518762  0.41140617  0.90622366     0.09400
H455        H  0.96110052  0.38449385  0.97586769     0.14000
H456        H  0.07115881  0.47076661  0.95582929    -0.00300
H457        H  0.96042010  0.47167795  0.86534479     0.14300
H458        H  0.02677629  0.35829837  0.86414376     0.14100
C459        C  0.05333860  0.40326045  0.09978829     0.85800
C460        C  0.05462866  0.40352313  0.04646570    -0.54400
C461        C  0.02281307  0.42727769  0.02569692     0.08800
C462        C  0.99191960  0.44853993  0.05955925     0.19700
C463        C  0.05012077  0.45556247  0.11416618    -0.55100
C464        C  0.01963784  0.48062553  0.09125950     0.08900
C465        C  0.00999210  0.38395293  0.11040964    -0.54600
C466        C  0.97800374  0.40675596  0.08956042     0.09400
H467        H  0.07815018  0.38556748  0.02692554     0.14000
H468        H  0.96573387  0.46653701  0.04208769    -0.00300
H469        H  0.07230643  0.47104556  0.13869909     0.14300
H470        H  0.00364289  0.35566772  0.13391722     0.14100
O471        O  0.29836341  0.35645657  0.22449391    -0.81500
O472        O  0.17160569  0.20319813  0.28634742    -0.66200
O473        O  0.26413179  0.28840789  0.28319413    -1.12800
C474        C  0.31805598  0.17044154  0.18191957     1.05400
O475        O  0.21357274  0.14295481  0.29811608    -0.79400
O476        O  0.29712438  0.14471224  0.28836674    -0.67000
Ni477      Ni  0.25695982  0.35401188  0.27169240     1.34900
C478        C  0.32511495  0.17361675  0.30221566     0.84100
O479        O  0.18615205  0.28721388  0.32507364    -0.80000
O480        O  0.21428729  0.35928412  0.31719600    -0.90200
C481        C  0.17891458  0.16314834  0.30371189     0.83700
O482        O  0.21522136  0.34919755  0.22406140    -0.68400
O483        O  0.28887188  0.14333831  0.19546212    -0.87700
C484        C  0.18743952  0.31881567  0.21302095     0.84500
C485        C  0.18691075  0.33146373  0.33298087     1.06100
H486        H  0.23363614  0.21580823  0.20998711     0.37900
O487        O  0.24669699  0.21198446  0.24010015    -1.10400
O488        O  0.32522967  0.21733193  0.29051637    -0.67000
Ni489      Ni  0.29500351  0.25088461  0.24040894     1.26300
O490        O  0.18580425  0.27844078  0.23208374    -0.67300
O491        O  0.32330870  0.21257439  0.19672646    -0.79600
C492        C  0.33290905  0.33607878  0.21965522     0.83900
O493        O  0.33996910  0.29582486  0.23701406    -0.66700
Ni494      Ni  0.25096658  0.14598358  0.24638216     1.27400
Ni495      Ni  0.21602177  0.24849984  0.28313554     1.26100
H496        H  0.27748405  0.28631462  0.31336252     0.38400
C497        C  0.16234412  0.37485581  0.15242450    -0.20900
C498        C  0.15493130  0.33374018  0.17785808    -0.07500
C499        C  0.11567749  0.31149799  0.17174107     0.13400
C500        C  0.08472649  0.33280455  0.14402608    -0.21000
C501        C  0.09049578  0.37708406  0.12295045    -0.07500
C502        C  0.13152916  0.39604012  0.12460282     0.13300
C503        C  0.14484181  0.43870343  0.09796286    -0.24400
H504        H  0.19270782  0.39148994  0.15463665     0.14600
H505        H  0.05596711  0.31370157  0.13909636     0.14700
C506        C  0.10528877  0.26590759  0.19509154    -0.24300
H507        H  0.17169417  0.42946325  0.07650724     0.04900
H508        H  0.15440021  0.46743296  0.12256808     0.08100
H509        H  0.12079815  0.45223838  0.07403692     0.08100
H510        H  0.10745316  0.27076975  0.23325421     0.08100
H511        H  0.12685617  0.23805093  0.18391913     0.08100
H512        H  0.07332963  0.25343511  0.18620072     0.04900
C513        C  0.89123686  0.69192127  0.10500467    -0.20900
C514        C  0.87012323  0.67095444  0.14114942    -0.07500
C515        C  0.87995892  0.62428383  0.15350188     0.13400
C516        C  0.91251406  0.60107396  0.13146011    -0.21000
C517        C  0.93597759  0.62373261  0.09812692    -0.07500
C518        C  0.92463087  0.66954069  0.08423071     0.13300
C519        C  0.94864985  0.69720818  0.04968517    -0.24400
H520        H  0.88330104  0.72733869  0.09482985     0.14600
H521        H  0.92203741  0.56677826  0.14325818     0.14700
C522        C  0.85699614  0.59921868  0.19059526    -0.24300
H523        H  0.92757739  0.70636152  0.02047116     0.04900
H524        H  0.97516308  0.67779909  0.03567941     0.08100
H525        H  0.96093363  0.73014395  0.06631023     0.08100
H526        H  0.82325946  0.59892995  0.18227142     0.08100
H527        H  0.86320260  0.61734268  0.22424324     0.08100
H528        H  0.86710303  0.56217418  0.19404060     0.04900
C529        C  0.11719488  0.11078831  0.31201821    -0.20900
C530        C  0.14773453  0.13962377  0.33303932    -0.07500
C531        C  0.15061979  0.14183236  0.38177725     0.13400
C532        C  0.12499342  0.11263054  0.40826316    -0.21000
C533        C  0.09582295  0.08056514  0.38755046    -0.07500
C534        C  0.09090689  0.08194590  0.33811968     0.13300
C535        C  0.05859405  0.05286562  0.31149625    -0.24400
H536        H  0.11464119  0.10993087  0.27455204     0.14600
H537        H  0.12994662  0.11415754  0.44516249     0.14700
C538        C  0.18155604  0.17451394  0.40593578    -0.24300
H539        H  0.06150330  0.05654373  0.27351838     0.04900
H540        H  0.02715562  0.06502077  0.31971997     0.08100
H541        H  0.06151640  0.01495132  0.31893642     0.08100
H542        H  0.17535756  0.21135341  0.39579748     0.08100
H543        H  0.21343918  0.16513757  0.39605731     0.08100
H544        H  0.17981869  0.17262433  0.44419374     0.04900
C545        C  0.91088469  0.86496539  0.35556990    -0.20900
C546        C  0.90431192  0.87602311  0.40271871    -0.07500
C547        C  0.87803966  0.84555867  0.42694626     0.13400
C548        C  0.85446832  0.81058804  0.40260644    -0.21000
C549        C  0.85635837  0.80415605  0.35403493    -0.07500
C550        C  0.88734161  0.82983896  0.33098385     0.13300
C551        C  0.89398836  0.82294668  0.27999172    -0.24400
H552        H  0.93117293  0.88782673  0.33649144     0.14600
H553        H  0.83291610  0.78945503  0.42185721     0.14700
C554        C  0.87252409  0.85066380  0.47820105    -0.24300
H555        H  0.91892333  0.84641871  0.26751699     0.04900
H556        H  0.86511649  0.83090141  0.26017016     0.08100
H557        H  0.90317679  0.78606772  0.27285176     0.08100
H558        H  0.83963128  0.85824467  0.48519955     0.08100
H559        H  0.89252639  0.87890492  0.49378167     0.08100
H560        H  0.88106611  0.81729161  0.49522769     0.04900
C561        C  0.15090281  0.85439511  0.63487608    -0.20900
C562        C  0.13758334  0.84119664  0.67875278    -0.07500
C563        C  0.09605134  0.84969650  0.69023496     0.13400
C564        C  0.07077293  0.87667893  0.66029348    -0.21000
C565        C  0.08627080  0.89584079  0.61940302    -0.07500
C566        C  0.12558075  0.88078459  0.60491835     0.13300
C567        C  0.14326705  0.89680556  0.56008593    -0.24400
H568        H  0.18234883  0.84676925  0.62510111     0.14600
H569        H  0.04085902  0.88819446  0.67196085     0.14700
C570        C  0.07958007  0.83392470  0.73575247    -0.24300
H571        H  0.15180692  0.86564808  0.53887795     0.04900
H572        H  0.17134710  0.91889648  0.56717534     0.08100
H573        H  0.12063305  0.91751820  0.53963292     0.08100
H574        H  0.09831026  0.84998230  0.76472734     0.08100
H575        H  0.08116584  0.79500227  0.73773179     0.08100
H576        H  0.04682635  0.84429888  0.73991694     0.04900
C577        C  0.11610861  0.59411890  0.85986641    -0.20900
C578        C  0.09707313  0.62468671  0.89083778    -0.07500
C579        C  0.11279924  0.67119760  0.89675805     0.13400
C580        C  0.14604794  0.68648599  0.86994505    -0.21000
C581        C  0.16372188  0.65654321  0.83699451    -0.07500
C582        C  0.14873135  0.60944473  0.83239396     0.13300
C583        C  0.16426767  0.57621306  0.79572536    -0.24400
H584        H  0.10301635  0.55920633  0.85436964     0.14600
H585        H  0.15751987  0.72235977  0.87377330     0.14700
C586        C  0.09395106  0.70504503  0.93069374    -0.24300
H587        H  0.14691310  0.54223129  0.79481324     0.04900
H588        H  0.19734343  0.56817330  0.80258563     0.08100
H589        H  0.16036358  0.59242908  0.76121988     0.08100
H590        H  0.09497025  0.68982050  0.96580889     0.08100
H591        H  0.06137425  0.71227862  0.92052947     0.08100
H592        H  0.11094410  0.73924524  0.93227740     0.04900
C593        C  0.41426274  0.15015558  0.10900665    -0.20900
C594        C  0.39938880  0.11545239  0.07784206    -0.07500
C595        C  0.35922787  0.09623796  0.08369089     0.13400
C596        C  0.33363215  0.11527918  0.11734539    -0.21000
C597        C  0.34738125  0.15185534  0.14716681    -0.07500
C598        C  0.38913729  0.16808416  0.14419405     0.13300
C599        C  0.40814367  0.20310332  0.17848225    -0.24400
H600        H  0.44528644  0.16419119  0.10498710     0.14600
H601        H  0.30248466  0.10118522  0.12018323     0.14700
C602        C  0.34233099  0.05516361  0.05548476    -0.24300
H603        H  0.44176051  0.20842034  0.17291965     0.04900
H604        H  0.40457997  0.19013543  0.21422970     0.08100
H605        H  0.39328951  0.23785513  0.17496136     0.08100
H606        H  0.33159580  0.02717813  0.07887403     0.08100
H607        H  0.36597334  0.03931671  0.03348278     0.08100
H608        H  0.31571017  0.06656862  0.03355958     0.04900
C609        C  0.40775401  0.87587930  0.91587551    -0.20900
C610        C  0.38965407  0.90105568  0.95187099    -0.07500
C611        C  0.34727676  0.91352570  0.94762753     0.13400
C612        C  0.32350899  0.89710011  0.90939723    -0.21000
C613        C  0.34076624  0.86886902  0.87498104    -0.07500
C614        C  0.38392793  0.85935220  0.87752704     0.13300
C615        C  0.40536616  0.83189018  0.84016386    -0.24400
H616        H  0.44026813  0.86707871  0.91890526     0.14600
H617        H  0.29080068  0.90518465  0.90732398     0.14700
C618        C  0.32571860  0.94363742  0.98283206    -0.24300
H619        H  0.43947960  0.83182353  0.84602058     0.04900
H620        H  0.39891277  0.84789060  0.80596923     0.08100
H621        H  0.39478879  0.79462792  0.83962604     0.08100
H622        H  0.34741312  0.96103336  0.00800926     0.08100
H623        H  0.30323853  0.92173849  0.00169153     0.08100
H624        H  0.30845558  0.97195668  0.96515276     0.04900
C625        C  0.64431707  0.87104758  0.16395084    -0.20900
C626        C  0.68664235  0.87945433  0.15712822    -0.07500
C627        C  0.69866478  0.90991460  0.12165388     0.13400
C628        C  0.66866275  0.92501721  0.08946108    -0.21000
C629        C  0.62718754  0.91024058  0.09219650    -0.07500
C630        C  0.61437250  0.88570467  0.13144882     0.13300
C631        C  0.56982874  0.87159194  0.13716320    -0.24400
H632        H  0.63502226  0.84817809  0.19163061     0.14600
H633        H  0.67809349  0.94528464  0.05996227     0.14700
C634        C  0.74314913  0.92521999  0.11692133    -0.24300
H635        H  0.56546702  0.85075428  0.16890342     0.04900
H636        H  0.55872146  0.84988640  0.10698624     0.08100
H637        H  0.55092166  0.90374991  0.14014134     0.08100
H638        H  0.76303927  0.89466143  0.10942501     0.08100
H639        H  0.75426179  0.94279631  0.14955885     0.08100
H640        H  0.74666732  0.95055730  0.08836818     0.04900
C641        C  0.86549496  0.38288138  0.87056953    -0.20900
C642        C  0.86851259  0.34617419  0.83847076    -0.07500
C643        C  0.90708818  0.32741590  0.82791153     0.13400
C644        C  0.94259903  0.34670682  0.84928601    -0.21000
C645        C  0.94056216  0.38396650  0.88202701    -0.07500
C646        C  0.90071443  0.40187730  0.89318402     0.13300
C647        C  0.89385609  0.44008646  0.92935502    -0.24400
H648        H  0.83506454  0.39535400  0.87935337     0.14600
H649        H  0.97137699  0.33115419  0.84005308     0.14700
C650        C  0.91062823  0.28565547  0.79538520    -0.24300
H651        H  0.86055373  0.44876268  0.93201115     0.04900
H652        H  0.90984922  0.47333337  0.92087418     0.08100
H653        H  0.90401472  0.42846952  0.96413225     0.08100
H654        H  0.89750024  0.29440414  0.76087067     0.08100
H655        H  0.89341912  0.25504814  0.80907344     0.08100
H656        H  0.94329622  0.27509299  0.79096091     0.04900
C657        C  0.66027171  0.12128382  0.86174859    -0.20900
C658        C  0.69950941  0.13751632  0.87599252    -0.07500
C659        C  0.71145558  0.13595945  0.92294744     0.13400
C660        C  0.68217314  0.12379411  0.95539889    -0.21000
C661        C  0.64041344  0.11407844  0.94255580    -0.07500
C662        C  0.63049754  0.10893357  0.89418194     0.13300
C663        C  0.58925230  0.09028873  0.87550585    -0.24400
H664        H  0.65207318  0.12123651  0.82523499     0.14600
H665        H  0.69308931  0.12101372  0.99074672     0.14700
C666        C  0.75533694  0.14757727  0.93885687    -0.24300
H667        H  0.58951174  0.08483608  0.83736778     0.04900
H668        H  0.56431137  0.11559981  0.88219759     0.08100
H669        H  0.58169828  0.05573867  0.89060509     0.08100
H670        H  0.76333734  0.18466903  0.93128429     0.08100
H671        H  0.77705066  0.12398680  0.92078705     0.08100
H672        H  0.75993412  0.14283207  0.97669476     0.04900
C673        C  0.83614162  0.11368950  0.69564279    -0.20900
C674        C  0.81837247  0.14729454  0.66621337    -0.07500
C675        C  0.83366688  0.15018384  0.62038883     0.13400
C676        C  0.86322482  0.11795534  0.60523249    -0.21000
C677        C  0.87680760  0.08036494  0.63246728    -0.07500
C678        C  0.86590000  0.08146010  0.68007189    -0.01900
C679        C  0.88508430  0.04997522  0.71606663    -0.24400
H680        H  0.82683259  0.11237018  0.73137598     0.14600
H681        H  0.87549163  0.12257408  0.57122171     0.14700
C682        C  0.81893907  0.18608411  0.58577279    -0.24300
H683        H  0.89776336  0.07190785  0.74534691     0.04900
H684        H  0.91116418  0.02914886  0.70302025     0.08100
H685        H  0.86113490  0.02572247  0.72940925     0.08100
H686        H  0.82535449  0.22222804  0.59942055     0.08100
H687        H  0.78535716  0.18090902  0.57799010     0.08100
H688        H  0.83482293  0.18285519  0.55224268     0.04900
C689        C  0.87535018  0.38521090  0.14700649    -0.20900
C690        C  0.86775630  0.33786649  0.13396647    -0.07500
C691        C  0.89159191  0.31779068  0.09845745     0.13400
C692        C  0.92445947  0.34386844  0.07998444    -0.21000
C693        C  0.93484033  0.38931604  0.09661824    -0.07500
C694        C  0.90902168  0.41084313  0.12926382     0.13300
C695        C  0.91898317  0.45949884  0.14788639    -0.24400
H696        H  0.85731382  0.40078675  0.17428553     0.14600
H697        H  0.94435261  0.32725990  0.05503170     0.14700
C698        C  0.88318898  0.26835008  0.08079490    -0.24300
H699        H  0.89591300  0.47144262  0.17324722     0.04900
H700        H  0.91907198  0.48459673  0.11885762     0.08100
H701        H  0.94997010  0.46001315  0.16540789     0.08100
H702        H  0.85056061  0.26513666  0.06806535     0.08100
H703        H  0.88878539  0.24265080  0.10866705     0.08100
H704        H  0.90356269  0.25894022  0.05175987     0.04900
C705        C  0.61263413  0.16742408  0.16499018    -0.20900
C706        C  0.65422697  0.15703493  0.17692738    -0.07500
C707        C  0.67074816  0.11407073  0.16028487     0.13400
C708        C  0.64740366  0.08668220  0.12797512    -0.21000
C709        C  0.60860545  0.10145391  0.11114253    -0.07500
C710        C  0.58990534  0.14044215  0.13207088     0.13300
C711        C  0.54736623  0.15599586  0.11664407    -0.24400
H712        H  0.59833091  0.19856796  0.17918525     0.14600
H713        H  0.66149559  0.05642335  0.11163923     0.14700
C714        C  0.71318675  0.09726895  0.17459619    -0.24300
H715        H  0.53687068  0.18679582  0.13715752     0.04900
H716        H  0.52475526  0.12677900  0.12095788     0.08100
H717        H  0.54748846  0.16615151  0.07973486     0.08100
H718        H  0.71516173  0.09396792  0.21278251     0.08100
H719        H  0.73726791  0.12222572  0.16285294     0.08100
H720        H  0.71995837  0.06221149  0.15921274     0.04900
C721        C  0.84165655  0.03324427  0.33805400    -0.20900
C722        C  0.86672120  0.04641206  0.37724992    -0.07500
C723        C  0.87113411  0.09558531  0.38787667     0.13400
C724        C  0.85198966  0.12844837  0.35896132    -0.21000
C725        C  0.82862547  0.11485816  0.31947704    -0.07500
C726        C  0.82278428  0.06668117  0.30925809     0.13300
C727        C  0.79844123  0.05037727  0.26670584    -0.24400
H728        H  0.83742240  0.99701789  0.32779262     0.14600
H729        H  0.85595710  0.16569890  0.36679668     0.14700
C730        C  0.89659253  0.11515933  0.42874291    -0.24300
H731        H  0.79846498  0.01146566  0.26250135     0.04900
H732        H  0.81205426  0.06573603  0.23534722     0.08100
H733        H  0.76579912  0.06154842  0.26935179     0.08100
H734        H  0.92911259  0.10354773  0.42774616     0.08100
H735        H  0.88284258  0.10518268  0.46186819     0.08100
H736        H  0.89772176  0.15424112  0.42905848     0.04900
C737        C  0.09977169  0.85037469  0.34940841    -0.20900
C738        C  0.14097727  0.84439412  0.36460560    -0.07500
C739        C  0.15456106  0.86558637  0.40702515     0.13400
C740        C  0.12852663  0.89682146  0.43004079    -0.21000
C741        C  0.08950594  0.90794575  0.41146059    -0.07500
C742        C  0.07396639  0.88257001  0.37219266     0.13300
C743        C  0.03149142  0.89251206  0.35232576    -0.24400
H744        H  0.08919367  0.83370786  0.31720421     0.14600
H745        H  0.14062187  0.91688720  0.45963307     0.14700
C746        C  0.19748519  0.85745884  0.42682593    -0.24300
H747        H  0.02384603  0.86962826  0.32173199     0.04900
H748        H  0.02971728  0.92974266  0.34143852     0.08100
H749        H  0.00798678  0.88606599  0.37895438     0.08100
H750        H  0.22125502  0.87138152  0.40346260     0.08100
H751        H  0.20219916  0.81918099  0.43152227     0.08100
H752        H  0.20228744  0.87529164  0.46104212     0.04900
C753        C  0.36673715  0.84164094  0.15974616    -0.20900
C754        C  0.33419456  0.87098433  0.17209726    -0.07500
C755        C  0.33697488  0.91953951  0.16317919     0.13400
C756        C  0.37082942  0.93642931  0.13872327    -0.21000
C757        C  0.40166249  0.90610770  0.12187836    -0.07500
C758        C  0.39988803  0.85781067  0.13440225     0.13300
C759        C  0.43071487  0.82135043  0.11915648    -0.24400
H760        H  0.36576718  0.80483578  0.16903804     0.14600
H761        H  0.37050646  0.97297403  0.12951827     0.14700
C762        C  0.30335571  0.95336964  0.17628269    -0.24300
H763        H  0.42193804  0.78530005  0.12993570     0.04900
H764        H  0.46146363  0.82889369  0.13556749     0.08100
H765        H  0.43256669  0.81993345  0.08091107     0.08100
H766        H  0.30096204  0.95599793  0.21439955     0.08100
H767        H  0.27324697  0.94124707  0.16077011     0.08100
H768        H  0.30962343  0.98946279  0.16376600     0.04900
C769        C  0.11903049  0.66296906  0.10832384    -0.20900
C770        C  0.08642543  0.63809146  0.12906437    -0.07500
C771        C  0.08534522  0.63769520  0.17866569     0.13400
C772        C  0.11677315  0.66058521  0.20461548    -0.21000
C773        C  0.14990638  0.68265367  0.18356477    -0.07500
C774        C  0.15092564  0.68478336  0.13504163     0.13300
C775        C  0.18539598  0.71055159  0.11156379    -0.24400
H776        H  0.12074943  0.66498017  0.07126775     0.14600
H777        H  0.11683657  0.65889755  0.24210158     0.14700
C778        C  0.05234357  0.61255911  0.20594617    -0.24300
H779        H  0.18062888  0.71061503  0.07338220     0.04900
H780        H  0.21548095  0.69356116  0.11926039     0.08100
H781        H  0.18679657  0.74768247  0.12411551     0.08100
H782        H  0.05153515  0.57435553  0.19813566     0.08100
H783        H  0.02139261  0.62770627  0.19969722     0.08100
H784        H  0.05832552  0.61593219  0.24387764     0.04900
C785        C  0.33979668  0.11622408  0.87055357    -0.20900
C786        C  0.35494575  0.15604053  0.84910465    -0.07500
C787        C  0.39758545  0.16664360  0.85126158     0.13400
C788        C  0.42335130  0.14033208  0.88023498    -0.21000
C789        C  0.40735055  0.10391739  0.90755468    -0.07500
C790        C  0.36532221  0.08934181  0.89903782     0.13300
C791        C  0.34557314  0.04731303  0.92106225    -0.24400
H792        H  0.30713460  0.10738228  0.86650301     0.14600
H793        H  0.45496172  0.15225717  0.88432150     0.14700
C794        C  0.41539789  0.20844130  0.82684494    -0.24300
H795        H  0.31191579  0.04432035  0.91255923     0.04900
H796        H  0.34861675  0.05003471  0.95899142     0.08100
H797        H  0.35963180  0.01451505  0.90794097     0.08100
H798        H  0.40020050  0.24092364  0.83928150     0.08100
H799        H  0.41036198  0.20416334  0.78887704     0.08100
H800        H  0.44923682  0.21262233  0.83359991     0.04900
C801        C  0.13867568  0.37581322  0.82646963    -0.20900
C802        C  0.15480649  0.33732955  0.85030025    -0.07500
C803        C  0.14344087  0.32959182  0.89651801     0.13400
C804        C  0.11438711  0.35919574  0.91700323    -0.21000
C805        C  0.09657162  0.39621082  0.89235288    -0.07500
C806        C  0.10959121  0.40531585  0.84699006     0.13300
C807        C  0.09104527  0.44478311  0.81946810    -0.24400
H808        H  0.14822697  0.38218127  0.79139993     0.14600
H809        H  0.10299265  0.35108739  0.95095646     0.14700
C810        C  0.15983698  0.28832787  0.92320875    -0.24300
H811        H  0.10534581  0.44794514  0.78509174     0.04900
H812        H  0.09606604  0.47843623  0.83874647     0.08100
H813        H  0.05729842  0.43871339  0.81377436     0.08100
H814        H  0.19389214  0.29179674  0.92825093     0.08100
H815        H  0.15234880  0.25506817  0.90395978     0.08100
H816        H  0.14605361  0.28611368  0.95793867     0.04900
C817        C  0.13737392  0.05994786  0.68570795    -0.20900
C818        C  0.10565601  0.06991806  0.65252063    -0.07500
C819        C  0.09718467  0.11851818  0.64453743     0.13400
C820        C  0.12277285  0.15369033  0.66558672    -0.21000
C821        C  0.15665310  0.14252885  0.69433555    -0.07500
C822        C  0.16330053  0.09527509  0.70552663     0.13300
C823        C  0.19835259  0.08203371  0.73803536    -0.24400
H824        H  0.14370897  0.02467154  0.69616598     0.14600
H825        H  0.11786398  0.19031502  0.65722010     0.14700
C826        C  0.06192912  0.13471718  0.61339837    -0.24300
H827        H  0.19885544  0.04358665  0.74433374     0.04900
H828        H  0.19493172  0.10048883  0.77183672     0.08100
H829        H  0.22848949  0.09217429  0.72326098     0.08100
H830        H  0.03172600  0.12385059  0.62722484     0.08100
H831        H  0.06477571  0.12104073  0.57761770     0.08100
H832        H  0.06127107  0.17368565  0.61110625     0.04900
C833        C  0.57122406  0.11062385  0.68070389    -0.20900
C834        C  0.57583941  0.08729753  0.63780498    -0.07500
C835        C  0.61644850  0.08065919  0.62151144     0.13400
C836        C  0.64857681  0.10821403  0.64087857    -0.21000
C837        C  0.64131609  0.13910868  0.67779351    -0.07500
C838        C  0.60305308  0.13857086  0.69981758     0.13300
C839        C  0.59446144  0.17037681  0.74065980    -0.24400
H840        H  0.54198412  0.10971771  0.69804938     0.14600
H841        H  0.67920029  0.10648609  0.62641034     0.14700
C842        C  0.62717680  0.04565918  0.58403579    -0.24300
H843        H  0.56209627  0.16647393  0.75224873     0.04900
H844        H  0.59943907  0.20767174  0.73109220     0.08100
H845        H  0.61531996  0.16192539  0.77021579     0.08100
H846        H  0.63916166  0.06448455  0.55366895     0.08100
H847        H  0.60062672  0.02303269  0.57265357     0.08100
H848        H  0.65163084  0.02190791  0.59735551     0.04900
C849        C  0.39694523  0.09539620  0.63138084    -0.20900
C850        C  0.42622228  0.11713552  0.60370452    -0.07500
C851        C  0.42502820  0.16649705  0.59760002     0.13400
C852        C  0.39567205  0.19317077  0.62094871    -0.21000
C853        C  0.36723028  0.17154685  0.64964745    -0.07500
C854        C  0.36720608  0.12202111  0.65425234     0.13300
C855        C  0.33668353  0.09740747  0.68460066    -0.24400
H856        H  0.39890029  0.05788931  0.63725988     0.14600
H857        H  0.39454612  0.23090513  0.61611567     0.14700
C858        C  0.45508632  0.19208979  0.56755958    -0.24300
H859        H  0.34215332  0.05891833  0.68578039     0.04900
H860        H  0.30462270  0.10256936  0.67113858     0.08100
H861        H  0.33955140  0.11184038  0.72047787     0.08100
H862        H  0.47552188  0.16788013  0.54852276     0.08100
H863        H  0.47468087  0.21646201  0.58930094     0.08100
H864        H  0.43768385  0.21286992  0.54152012     0.04900
C865        C  0.35961791  0.90779272  0.61946395    -0.20900
C866        C  0.38909804  0.87625023  0.60258700    -0.07500
C867        C  0.38324901  0.82788028  0.61288841     0.13400
C868        C  0.35677195  0.81511720  0.64858681    -0.21000
C869        C  0.33341439  0.84875571  0.67227061    -0.07500
C870        C  0.33283840  0.89546083  0.65495458     0.13300
C871        C  0.30585278  0.93373111  0.67436520    -0.24400
H872        H  0.35856206  0.94324663  0.60671338     0.14600
H873        H  0.35497977  0.77849166  0.65837325     0.14700
C874        C  0.40550161  0.78889420  0.58830050    -0.24300
H875        H  0.31045231  0.96784945  0.65683723     0.04900
H876        H  0.31352039  0.93979188  0.71165194     0.08100
H877        H  0.27268734  0.92380991  0.66943127     0.08100
H878        H  0.42577799  0.77007628  0.61327764     0.08100
H879        H  0.42446713  0.80174736  0.55968732     0.08100
H880        H  0.38240762  0.76350213  0.57306846     0.04900
C881        C  0.37286741  0.17351661  0.37371486    -0.20900
C882        C  0.35948175  0.15255838  0.33146501    -0.07500
C883        C  0.37781149  0.10899560  0.31823296     0.13400
C884        C  0.40862973  0.08850517  0.34672385    -0.21000
C885        C  0.42249108  0.10972806  0.38843024    -0.07500
C886        C  0.40404922  0.15273298  0.40204192     0.13300
C887        C  0.41795694  0.17703560  0.44641664    -0.24400
H888        H  0.35896147  0.20623778  0.38462253     0.14600
H889        H  0.42396459  0.05692754  0.33492018     0.14700
C890        C  0.36696192  0.08480259  0.27253943    -0.24300
H891        H  0.40021620  0.20962300  0.45289307     0.04900
H892        H  0.45126736  0.18675504  0.44503557     0.08100
H893        H  0.41327980  0.15298744  0.47580152     0.08100
H894        H  0.37147411  0.10959038  0.24375422     0.08100
H895        H  0.33445281  0.07185720  0.27209258     0.08100
H896        H  0.38674969  0.05377075  0.26614045     0.04900
C897        C  0.61377247  0.13487195  0.40797569    -0.20900
C898        C  0.57727835  0.12335883  0.38142392    -0.07500
C899        C  0.57760828  0.13348868  0.33328049     0.13400
C900        C  0.60988042  0.16096952  0.31589501    -0.21000
C901        C  0.64407354  0.17543631  0.34355030    -0.07500
C902        C  0.64686414  0.16082764  0.38961942     0.13300
C903        C  0.68431927  0.17339394  0.41946032    -0.24400
H904        H  0.61746636  0.12304239  0.44309536     0.14600
H905        H  0.60869042  0.17056102  0.27969897     0.14700
C906        C  0.54542621  0.11565157  0.29824783    -0.24300
H907        H  0.68170336  0.15955912  0.45500343     0.04900
H908        H  0.68792444  0.21225545  0.42203074     0.08100
H909        H  0.71241892  0.15829881  0.40393163     0.08100
H910        H  0.52756860  0.14571493  0.28440202     0.08100
H911        H  0.52369648  0.08932346  0.31189157     0.08100
H912        H  0.56110555  0.09796508  0.26908543     0.04900
C913        C  0.60901178  0.88517399  0.36578512    -0.20900
C914        C  0.58034529  0.86308044  0.39496344    -0.07500
C915        C  0.58552752  0.81373640  0.40251537     0.13400
C916        C  0.61892171  0.78982588  0.38263602    -0.21000
C917        C  0.64631328  0.81246083  0.35331641    -0.07500
C918        C  0.64152508  0.86087425  0.34534675     0.13300
C919        C  0.67075081  0.88747440  0.31501510    -0.24400
H920        H  0.60540920  0.92114982  0.35569880     0.14600
H921        H  0.62252030  0.75246777  0.38848682     0.14700
C922        C  0.55614392  0.78354824  0.42937226    -0.24300
H923        H  0.66455402  0.92583634  0.31519299     0.04900
H924        H  0.66700091  0.87461964  0.27879044     0.08100
H925        H  0.70321111  0.88261689  0.32739734     0.08100
H926        H  0.57291432  0.76844418  0.45956195     0.08100
H927        H  0.52892052  0.80201653  0.44221291     0.08100
H928        H  0.54422586  0.75422216  0.40675241     0.04900
C929        C  0.37728903  0.81274477  0.36196615    -0.20900
C930        C  0.35369437  0.84305157  0.33460396    -0.07500
C931        C  0.36602819  0.89112362  0.33181991     0.13400
C932        C  0.40207008  0.90714852  0.35530366    -0.21000
C933        C  0.42661916  0.87642333  0.38075587    -0.07500
C934        C  0.41347048  0.82892070  0.38549232     0.13300
C935        C  0.43699588  0.79526367  0.41577134    -0.24400
H936        H  0.36742370  0.77634322  0.36481225     0.14600
H937        H  0.41232269  0.94338568  0.35190144     0.14700
C938        C  0.34317427  0.92527989  0.30154500    -0.24300
H939        H  0.44202472  0.81085845  0.45094038     0.04900
H940        H  0.41993740  0.76141033  0.41931306     0.08100
H941        H  0.46709397  0.78707310  0.40033997     0.08100
H942        H  0.31065997  0.92875190  0.31237408     0.08100
H943        H  0.34427233  0.91258732  0.26526938     0.08100
H944        H  0.35755721  0.96099619  0.30310798     0.04900
C945        C  0.59260536  0.65003231  0.15118611    -0.20900
C946        C  0.59576718  0.63521456  0.10465181    -0.07500
C947        C  0.62353047  0.65988669  0.07682628     0.13400
C948        C  0.65280913  0.69133841  0.09762504    -0.21000
C949        C  0.65492156  0.69928327  0.14601739    -0.07500
C950        C  0.62207456  0.68100221  0.17249954     0.13300
C951        C  0.61910642  0.69086665  0.22370901    -0.24400
H952        H  0.57068888  0.63183312  0.17261085     0.14600
H953        H  0.67567911  0.70766620  0.07606520     0.14700
C954        C  0.62443661  0.64986666  0.02569257    -0.24300
H955        H  0.59175338  0.67316617  0.23855191     0.04900
H956        H  0.61590861  0.72926522  0.23008445     0.08100
H957        H  0.64707169  0.67777689  0.24226838     0.08100
H958        H  0.59351744  0.65665119  0.00971032     0.08100
H959        H  0.63241950  0.61257740  0.01965028     0.08100
H960        H  0.64760980  0.67229315  0.00842887     0.04900
C961        C  0.65230681  0.38278243  0.13876070    -0.20900
C962        C  0.68098785  0.39434065  0.17418262    -0.07500
C963        C  0.68666051  0.44181220  0.18792715     0.13400
C964        C  0.66255716  0.47649207  0.16630632    -0.21000
C965        C  0.63271016  0.46486637  0.13121593    -0.07500
C966        C  0.62792694  0.41654583  0.11742842     0.13300
C967        C  0.59769334  0.39748577  0.08051518    -0.24400
H968        H  0.64818188  0.34625813  0.12788734     0.14600
H969        H  0.66731504  0.51236493  0.17785351     0.14700
C970        C  0.71689522  0.45590250  0.22635013    -0.24300
H971        H  0.61519222  0.37979095  0.05274043     0.04900
H972        H  0.57764426  0.42350213  0.06361100     0.08100
H973        H  0.57681336  0.37112712  0.09611192     0.08100
H974        H  0.74879165  0.44667172  0.21643556     0.08100
H975        H  0.70896411  0.43743088  0.25857849     0.08100
H976        H  0.71646263  0.49435544  0.23374606     0.04900
C977        C  0.66683411  0.41776787  0.91131490    -0.20900
C978        C  0.63030397  0.42933017  0.88637259    -0.07500
C979        C  0.62657573  0.41244671  0.83954867     0.13400
C980        C  0.65626946  0.38105753  0.82201680    -0.21000
C981        C  0.69077936  0.36739702  0.84879125    -0.07500
C982        C  0.69666262  0.38756035  0.89357192     0.13300
C983        C  0.73576338  0.38009676  0.92222672    -0.24400
H984        H  0.67407506  0.43449685  0.94431760     0.14600
H985        H  0.65246069  0.36699510  0.78708314     0.14700
C986        C  0.59277128  0.42845001  0.80659884    -0.24300
H987        H  0.73727746  0.40298192  0.95373131     0.04900
H988        H  0.76320112  0.38861230  0.90146282     0.08100
H989        H  0.73732797  0.34324049  0.93410647     0.08100
H990        H  0.59181760  0.46742360  0.80574690     0.08100
H991        H  0.56238847  0.41395902  0.81649398     0.08100
H992        H  0.59793435  0.41590110  0.77064480     0.04900
C993        C  0.38309501  0.38854882  0.11425024    -0.20900
C994        C  0.40702264  0.42625530  0.13391160    -0.07500
C995        C  0.41136651  0.42774366  0.18349310     0.13400
C996        C  0.38923369  0.39539726  0.21046357    -0.21000
C997        C  0.36363056  0.36036694  0.19034568    -0.07500
C998        C  0.36135684  0.35627592  0.14164689     0.13300
C999        C  0.33430073  0.31885857  0.11839228    -0.24400
H1000       H  0.37929414  0.38450257  0.07736197     0.14600
H1001       H  0.39059274  0.39863652  0.24788867     0.14700
C1002       C  0.43850035  0.46359608  0.20944122    -0.24300
H1003       H  0.33586994  0.31998407  0.08008784     0.04900
H1004       H  0.30155369  0.32385715  0.12794148     0.08100
H1005       H  0.34442796  0.28354470  0.12952426     0.08100
H1006       H  0.42903146  0.50002331  0.20198790     0.08100
H1007       H  0.47139649  0.45884896  0.20089595     0.08100
H1008       H  0.43674764  0.45959843  0.24750434     0.04900
C1009       C  0.33751962  0.63757568  0.12578681    -0.20900
C1010       C  0.35599023  0.66190650  0.16375664    -0.07500
C1011       C  0.39931949  0.65825209  0.17086348     0.13400
C1012       C  0.42206423  0.62674734  0.14271198    -0.21000
C1013       C  0.40239442  0.59867998  0.10768022    -0.07500
C1014       C  0.35972234  0.60604079  0.09825825     0.13300
C1015       C  0.33545396  0.57725498  0.06249278    -0.24400
H1016       H  0.30436609  0.64033308  0.11969753     0.14600
H1017       H  0.45442188  0.62064543  0.15109506     0.14700
C1018       C  0.42087204  0.68475873  0.21008994    -0.24300
H1019       H  0.31902307  0.60104732  0.03834128     0.04900
H1020       H  0.31213888  0.55514538  0.07988822     0.08100
H1021       H  0.35531685  0.55382392  0.04186073     0.08100
H1022       H  0.40760953  0.67427065  0.24351762     0.08100
H1023       H  0.41669745  0.72315268  0.20550940     0.08100
H1024       H  0.45460036  0.67760019  0.21147391     0.04900
C1025       C  0.43451553  0.61730151  0.84917557    -0.20900
C1026       C  0.42140547  0.60351822  0.89304599    -0.07500
C1027       C  0.38978484  0.62902789  0.91430641     0.13400
C1028       C  0.36720572  0.66187119  0.88836086    -0.21000
C1029       C  0.37601553  0.66991156  0.84176874    -0.07500
C1030       C  0.41202793  0.65032705  0.82316676     0.13300
C1031       C  0.42434382  0.66075156  0.77448392    -0.24400
H1032       H  0.45915057  0.59794808  0.83299074     0.14600
H1033       H  0.34006306  0.67781406  0.90301878     0.14700
C1034       C  0.37723055  0.61798529  0.96267817    -0.24300
H1035       H  0.45308639  0.64214959  0.76514877     0.04900
H1036       H  0.43000801  0.69914577  0.77115513     0.08100
H1037       H  0.39928627  0.64943247  0.74964708     0.08100
H1038       H  0.40426738  0.62268303  0.98685991     0.08100
H1039       H  0.36586417  0.58105436  0.96398619     0.08100
H1040       H  0.35223654  0.64150285  0.97441352     0.04900
C1041       C  0.32564883  0.38953666  0.85001880    -0.20900
C1042       C  0.34418365  0.35730579  0.81980885    -0.07500
C1043       C  0.38584717  0.36520566  0.80862603     0.13400
C1044       C  0.40893050  0.40158827  0.83182868    -0.21000
C1045       C  0.39143582  0.43185244  0.86569001    -0.07500
C1046       C  0.34781238  0.42710510  0.87180884     0.13300
C1047       C  0.32326021  0.46120684  0.90076892    -0.24400
H1048       H  0.29315166  0.38460435  0.85739015     0.14600
H1049       H  0.44062182  0.40591891  0.82212124     0.14700
C1050       C  0.40622472  0.33509110  0.77263744    -0.24300
H1051       H  0.28967905  0.45232772  0.89953958     0.04900
H1052       H  0.32617560  0.49737404  0.88746433     0.08100
H1053       H  0.33294485  0.46069757  0.93766064     0.08100
H1054       H  0.38984785  0.33912262  0.73873741     0.08100
H1055       H  0.40497283  0.29764180  0.78242647     0.08100
H1056       H  0.43920778  0.34517835  0.76842179     0.04900
C1057       C  0.15564127  0.56893997  0.60292628    -0.20900
C1058       C  0.12793876  0.59616040  0.57629825    -0.07500
C1059       C  0.12966856  0.64604420  0.58260505     0.13400
C1060       C  0.15573668  0.66571839  0.61733517    -0.21000
C1061       C  0.18112222  0.63800524  0.64582469    -0.07500
C1062       C  0.18163448  0.58874100  0.63767650     0.13300
C1063       C  0.20931513  0.55608232  0.66482174    -0.24400
H1064       H  0.15885849  0.53187777  0.59595181     0.14600
H1065       H  0.15613635  0.70360855  0.62222149     0.14700
C1066       C  0.10512517  0.67993005  0.55296624    -0.24300
H1067       H  0.20472704  0.51868108  0.65397961     0.04900
H1068       H  0.20250236  0.55848074  0.70216651     0.08100
H1069       H  0.24229412  0.56519264  0.65926508     0.08100
H1070       H  0.07172354  0.67780778  0.56019130     0.08100
H1071       H  0.11018708  0.67338317  0.51569211     0.08100
H1072       H  0.11453811  0.71709009  0.56018915     0.04900
C1073       C  0.09577784  0.62729297  0.39636009    -0.20900
C1074       C  0.10512542  0.58084108  0.40782781    -0.07500
C1075       C  0.13780614  0.55819646  0.38561705     0.13400
C1076       C  0.16417354  0.58421369  0.35770115    -0.21000
C1077       C  0.15869789  0.63273065  0.35202675    -0.07500
C1078       C  0.12228314  0.65374666  0.36880981     0.13300
C1079       C  0.11138952  0.70399934  0.35876256    -0.24400
H1080       H  0.07031074  0.64448089  0.41327893     0.14600
H1081       H  0.19062867  0.56717377  0.34268342     0.14700
C1082       C  0.14605681  0.50717886  0.39370166    -0.24300
H1083       H  0.08031555  0.71306058  0.37163080     0.04900
H1084       H  0.11098628  0.70961093  0.32082552     0.08100
H1085       H  0.13414056  0.72818597  0.37627405     0.08100
H1086       H  0.11807823  0.48646301  0.38283420     0.08100
H1087       H  0.15323608  0.50145037  0.43092100     0.08100
H1088       H  0.17250810  0.49446121  0.37335794     0.04900
C1089       C  0.87394097  0.56659118  0.38996084    -0.20900
C1090       C  0.91227823  0.59060949  0.39045712    -0.07500
C1091       C  0.92049098  0.62317643  0.35560020     0.13400
C1092       C  0.88799975  0.63700019  0.32607904    -0.21000
C1093       C  0.84755126  0.62010250  0.33239029    -0.07500
C1094       C  0.84085759  0.58212391  0.36205650     0.13300
C1095       C  0.79856310  0.56003016  0.36608481    -0.24400
H1096       H  0.86797361  0.54071241  0.41617522     0.14600
H1097       H  0.89314924  0.66539743  0.30216636     0.14700
C1098       C  0.96234343  0.64677313  0.35297821    -0.24300
H1099       H  0.79891707  0.53032520  0.39061825     0.04900
H1100       H  0.78773214  0.54626233  0.33166755     0.08100
H1101       H  0.77630598  0.58645836  0.37868775     0.08100
H1102       H  0.98639589  0.61969199  0.34798415     0.08100
H1103       H  0.96958153  0.66693467  0.38543293     0.08100
H1104       H  0.96358757  0.67155222  0.32368561     0.04900
C1105       C  0.11165988  0.33677787  0.34611931    -0.20900
C1106       C  0.15206898  0.35163013  0.35895901    -0.07500
C1107       C  0.15770046  0.38460955  0.39561209     0.13400
C1108       C  0.12299328  0.39992428  0.41987195    -0.21000
C1109       C  0.08272070  0.38274869  0.40897663    -0.07500
C1110       C  0.07714380  0.35146763  0.37096193     0.13300
C1111       C  0.03508722  0.33089284  0.35879076    -0.24400
H1112       H  0.10722192  0.31205590  0.31743870     0.14600
H1113       H  0.12786287  0.42186496  0.45051653     0.14700
C1114       C  0.20033226  0.40077051  0.41169056    -0.24300
H1115       H  0.03586602  0.30731591  0.32782988     0.04900
H1116       H  0.01307248  0.35968290  0.35137558     0.08100
H1117       H  0.02380515  0.30992981  0.38809995     0.08100
H1118       H  0.21564555  0.42027179  0.38377859     0.08100
H1119       H  0.21926781  0.36987135  0.42124029     0.08100
H1120       H  0.19917608  0.42457453  0.44246102     0.04900
C1121       C  0.10569841  0.31537610  0.64232297    -0.20900
C1122       C  0.14673860  0.31258232  0.62862116    -0.07500
C1123       C  0.15763074  0.32426629  0.58356220     0.13400
C1124       C  0.12674867  0.33630966  0.55234481    -0.21000
C1125       C  0.08474597  0.33936893  0.56462517    -0.07500
C1126       C  0.07434076  0.32975371  0.61128487     0.13300
C1127       C  0.03157371  0.33492806  0.63002233    -0.24400
H1128       H  0.09821894  0.30571883  0.67731673     0.14600
H1129       H  0.13642473  0.34740510  0.51855412     0.14700
C1130       C  0.20218654  0.32618910  0.56851513    -0.24300
H1131       H  0.03096193  0.32815861  0.66774991     0.04900
H1132       H  0.01032036  0.30858863  0.61317303     0.08100
H1133       H  0.02053919  0.37140632  0.62524895     0.08100
H1134       H  0.21566590  0.29050957  0.56765487     0.08100
H1135       H  0.22070494  0.34923880  0.59272541     0.08100
H1136       H  0.20502099  0.34065969  0.53323215     0.04900
C1137       C  0.78201676  0.38945086  0.59980335    -0.20900
C1138       C  0.79919082  0.37184915  0.64074766    -0.07500
C1139       C  0.84210532  0.37589206  0.64942311     0.13400
C1140       C  0.86744042  0.39277001  0.61471652    -0.21000
C1141       C  0.85101127  0.40498407  0.57093257    -0.07500
C1142       C  0.80711244  0.40854702  0.56586233     0.13300
C1143       C  0.78504734  0.43217115  0.52598025    -0.24400
H1144       H  0.74874996  0.38740157  0.59388536     0.14600
H1145       H  0.90019475  0.39612399  0.62244607     0.14700
C1146       C  0.86153416  0.35976756  0.69421285    -0.24300
H1147       H  0.76270378  0.45793289  0.53977828     0.04900
H1148       H  0.76767647  0.40543336  0.50460288     0.08100
H1149       H  0.80576500  0.45242120  0.50364895     0.08100
H1150       H  0.85424342  0.32193650  0.69907399     0.08100
H1151       H  0.84930226  0.38087210  0.72332730     0.08100
H1152       H  0.89575141  0.36411548  0.69486536     0.04900
C1153       C  0.85242429  0.41608165  0.37506190    -0.20900
C1154       C  0.88399519  0.39673783  0.40244041    -0.07500
C1155       C  0.90164804  0.35371419  0.38937895     0.13400
C1156       C  0.88579436  0.32958373  0.35031899    -0.21000
C1157       C  0.85194428  0.34680637  0.32420801    -0.07500
C1158       C  0.83613622  0.39188841  0.33584062     0.13300
C1159       C  0.80193477  0.41480720  0.30815982    -0.24400
H1160       H  0.83896239  0.44909541  0.38597030     0.14600
H1161       H  0.89899001  0.29581704  0.34159945     0.14700
C1162       C  0.93576346  0.33189857  0.41802069    -0.24300
H1163       H  0.79535725  0.45078513  0.32140577     0.04900
H1164       H  0.77285288  0.39388247  0.31022529     0.08100
H1165       H  0.81104961  0.41796154  0.27154368     0.08100
H1166       H  0.92504896  0.32526921  0.45354398     0.08100
H1167       H  0.96292092  0.35607303  0.41970873     0.08100
H1168       H  0.94580243  0.29781437  0.40300355     0.04900
C1169       C  0.86791695  0.65078331  0.62720654    -0.20900
C1170       C  0.83850059  0.68251130  0.61067658    -0.07500
C1171       C  0.84502912  0.70375676  0.56686988     0.13400
C1172       C  0.87689438  0.68754470  0.53910035    -0.21000
C1173       C  0.90203433  0.65030679  0.55290342    -0.07500
C1174       C  0.90062952  0.63589193  0.59990800     0.13300
C1175       C  0.93245187  0.60373680  0.62160511    -0.24400
H1176       H  0.86483921  0.63656283  0.66135509     0.14600
H1177       H  0.88066021  0.70315996  0.50569868     0.14700
C1178       C  0.81885059  0.74313117  0.54781361    -0.24300
H1179       H  0.92586894  0.59680900  0.65843389     0.04900
H1180       H  0.96351026  0.62065857  0.62105474     0.08100
H1181       H  0.93331484  0.56909423  0.60367734     0.08100
H1182       H  0.81998123  0.77368896  0.57214035     0.08100
H1183       H  0.78646747  0.73076576  0.54160125     0.08100
H1184       H  0.82991554  0.75574349  0.51407288     0.04900
C1185       C  0.68162561  0.63836711  0.87577926    -0.20900
C1186       C  0.66550882  0.66091189  0.83632887    -0.07500
C1187       C  0.62241820  0.65543346  0.82593855     0.13400
C1188       C  0.59824980  0.62439267  0.85243498    -0.21000
C1189       C  0.61554909  0.59981110  0.88989114    -0.07500
C1190       C  0.65757961  0.60868513  0.90255779     0.13300
C1191       C  0.67939794  0.58420083  0.94202738    -0.24400
H1192       H  0.71391376  0.64317572  0.88602425     0.14600
H1193       H  0.56639932  0.61681622  0.84192312     0.14700
C1194       C  0.60172712  0.68081460  0.78649445    -0.24300
H1195       H  0.69375863  0.61081094  0.96613607     0.04900
H1196       H  0.70414338  0.56148842  0.92829620     0.08100
H1197       H  0.65839022  0.56197626  0.96214657     0.08100
H1198       H  0.61677239  0.67155968  0.75351940     0.08100
H1199       H  0.60385276  0.71940393  0.79285643     0.08100
H1200       H  0.56836437  0.67126940  0.78273227     0.04900
C1201       C  0.58963279  0.79632803  0.62356297    -0.20900
C1202       C  0.61169525  0.81750819  0.66086161    -0.07500
C1203       C  0.59890874  0.86168142  0.67821701     0.13400
C1204       C  0.56460443  0.88385084  0.65728763    -0.21000
C1205       C  0.54263465  0.86242386  0.62000459    -0.07500
C1206       C  0.55466042  0.81762052  0.60373180     0.13300
C1207       C  0.53026941  0.79172255  0.56601539    -0.24400
H1208       H  0.59972867  0.76264973  0.61011075     0.14600
H1209       H  0.55465093  0.91775855  0.67026461     0.14700
C1210       C  0.62210091  0.88600903  0.71773547    -0.24300
H1211       H  0.54479007  0.75781792  0.55645790     0.04900
H1212       H  0.52801956  0.81331370  0.53461434     0.08100
H1213       H  0.49863897  0.78392309  0.57795839     0.08100
H1214       H  0.65483663  0.89205341  0.70837679     0.08100
H1215       H  0.62106417  0.86382864  0.74896342     0.08100
H1216       H  0.60841883  0.92061179  0.72647079     0.04900
C1217       C  0.63130222  0.80341749  0.88992044    -0.20900
C1218       C  0.65717028  0.83133503  0.86317191    -0.07500
C1219       C  0.65458045  0.88039098  0.86543445     0.13400
C1220       C  0.62770446  0.90071603  0.89660269    -0.21000
C1221       C  0.60200410  0.87353140  0.92536493    -0.07500
C1222       C  0.60367680  0.82363661  0.92095644     0.13300
C1223       C  0.57833258  0.79096214  0.95001705    -0.24400
H1224       H  0.63357899  0.76541522  0.88726741     0.14600
H1225       H  0.63071322  0.93825632  0.90065970     0.14700
C1226       C  0.68275947  0.91167206  0.83805991    -0.24300
H1227       H  0.58625098  0.75348493  0.94381745     0.04900
H1228       H  0.54500995  0.79440338  0.94093699     0.08100
H1229       H  0.58396523  0.79857514  0.98740247     0.08100
H1230       H  0.67674532  0.90592282  0.80046910     0.08100
H1231       H  0.71560651  0.90368856  0.84660545     0.08100
H1232       H  0.67790444  0.94960850  0.84567399     0.04900
C1233       C  0.81529803  0.86733413  0.61416359    -0.20900
C1234       C  0.82814874  0.84101784  0.65268429    -0.07500
C1235       C  0.87015365  0.84525340  0.66853698     0.13400
C1236       C  0.89633753  0.87860662  0.64825599    -0.21000
C1237       C  0.88185855  0.90741554  0.61271535    -0.07500
C1238       C  0.84126045  0.90060410  0.59437660     0.13300
C1239       C  0.82375628  0.93128769  0.55653894    -0.24400
H1240       H  0.78403738  0.86325575  0.60014184     0.14600
H1241       H  0.92732129  0.88475120  0.66251953     0.14700
C1242       C  0.88768681  0.81636766  0.70755414    -0.24300
H1243       H  0.79276148  0.91866993  0.54397008     0.04900
H1244       H  0.84448056  0.93148699  0.52668400     0.08100
H1245       H  0.82025953  0.96793904  0.56936469     0.08100
H1246       H  0.88652829  0.77843883  0.69774857     0.08100
H1247       H  0.86992456  0.82262956  0.73941167     0.08100
H1248       H  0.92058478  0.82563614  0.71570575     0.04900
C1249       C  0.92509952  0.61999816  0.83448779    -0.20900
C1250       C  0.94488303  0.64033930  0.87453013    -0.07500
C1251       C  0.93500312  0.68804120  0.88525265     0.13400
C1252       C  0.90198516  0.70984313  0.86144584    -0.21000
C1253       C  0.88043597  0.68739923  0.82447218    -0.07500
C1254       C  0.89311660  0.64253407  0.80998872     0.13300
C1255       C  0.87239735  0.61787694  0.76904175    -0.24400
H1256       H  0.93510069  0.58685139  0.82036430     0.14600
H1257       H  0.89301100  0.74505321  0.87179799     0.14700
C1258       C  0.95904179  0.71855036  0.91985024    -0.24300
H1259       H  0.88562910  0.58260474  0.76229713     0.04900
H1260       H  0.87684243  0.63944408  0.73799654     0.08100
H1261       H  0.83878837  0.61329748  0.77501751     0.08100
H1262       H  0.98528447  0.70098103  0.93715624     0.08100
H1263       H  0.93792649  0.73171306  0.94661274     0.08100
H1264       H  0.97208749  0.74935426  0.90178891     0.04900
loop_ 
_geom_bond_atom_site_label_1 
_geom_bond_atom_site_label_2 
_geom_bond_distance 
_geom_bond_site_symmetry_2 
_ccdc_geom_bond_type 
O1           Ni7   1.914       .  S
O1           C22   1.265       .  A
O2          Ni25   1.928       .  S
O2           C11   1.274       .  A
O3           Ni7   1.924       .  S
O3          Ni25   1.933       .  S
O3          Ni19   1.916       .  S
O3           H26   0.966       .  S
C4           O21   1.262       .  A
C4           O13   1.268       .  A
C4         C1218   1.458       .  S
O5          Ni24   1.913       .  S
O5           C11   1.267       .  A
O6          Ni24   1.895       .  S
O6            C8   1.270       .  A
Ni7          O10   1.898       .  S
Ni7          O12   1.902       .  S
C8           O18   1.282       .  A
C8         C1186   1.506       .  S
O9          Ni25   1.921       .  S
O9           C15   1.276       .  A
O10          C15   1.261       .  A
C11        C1253   1.484       .  S
O12          C14   1.273       .  A
O13         Ni24   1.926       .  S
C14          O20   1.274       .  A
C14        C1234   1.493       .  S
C15        C1170   1.490       .  S
H16          O17   0.966       .  S
O17         Ni25   1.925       .  S
O17         Ni19   1.916       .  S
O17         Ni24   1.917       .  S
O18         Ni19   1.974       .  S
Ni19         O23   1.915       .  S
Ni19         O21   1.887       .  S
O20         Ni25   1.940       .  S
C22          O23   1.267       .  A
C22        C1202   1.479       .  S
C27          C28   1.541       .  S
C27          C33   1.525       .  S
C27          C31   1.509       .  S
C27        C1141   1.530       .  S
C28          H35   1.077       .  S
C28          C29   1.379       .  D
C29          C30   1.538       .  S
C29          C44   1.499       .  S
C30          C34   1.540       .  S
C30          C32   1.545       .  S
C30          H36   1.104       .  S
C31          H37   1.081       .  S
C31          C32   1.367       .  D
C32          C53   1.487       .  S
C33          H38   1.087       .  S
C33          C34   1.359       .  D
C34        C1154   1.467       .  S
C39          C40   1.533       .  S
C39          C45   1.523       .  S
C39          C43   1.512       .  S
C39        C1125   1.522       .  S
C40          H47   1.081       .  S
C40          C41   1.361       .  D
C41          C42   1.535       .  S
C41          C68   1.503       .  S
C42          C46   1.563       .  S
C42          C44   1.574   1_455  S
C42          H48   1.105       .  S
C43          H49   1.071   1_455  S
C43          C44   1.372   1_455  D
C45          H50   1.089       .  S
C45          C46   1.356       .  D
C46        C1109   1.488       .  S
C51          C52   1.523       .  S
C51          C57   1.535       .  S
C51          C55   1.514       .  S
C51        C1173   1.528       .  S
C52          H59   1.081       .  S
C52          C53   1.361       .  D
C53          C54   1.535       .  S
C54          C58   1.542       .  S
C54          C56   1.552       .  S
C54          H60   1.104       .  S
C55          H61   1.081       .  S
C55          C56   1.369       .  D
C56          C65   1.492   1_655  S
C57          H62   1.083       .  S
C57          C58   1.371       .  D
C58        C1090   1.474       .  S
C63          C64   1.525       .  S
C63          C69   1.515       .  S
C63          C67   1.531       .  S
C63        C1058   1.535       .  S
C64          H71   1.080       .  S
C64          C65   1.373       .  D
C65          C66   1.546       .  S
C66          C70   1.542       .  S
C66          C68   1.552       .  S
C66          H72   1.105       .  S
C67          H73   1.073       .  S
C67          C68   1.376       .  D
C69          H74   1.088       .  S
C69          C70   1.355       .  D
C70        C1074   1.473       .  S
C75          C76   1.540       .  S
C75          C81   1.521       .  S
C75          C79   1.540       .  S
C75        C1045   1.569       .  S
C76          H83   1.073       .  S
C76          C77   1.379       .  D
C77          C78   1.552       .  S
C77         C104   1.511       .  S
C78          C82   1.551       .  S
C78          C80   1.559       .  S
C78          H84   1.107       .  S
C79          H85   1.080       .  S
C79          C80   1.381       .  D
C80          C89   1.530   1_556  S
C81          H86   1.087       .  S
C81          C82   1.363       .  D
C82        C1026   1.484       .  S
C87          C88   1.545       .  S
C87          C93   1.520       .  S
C87          C91   1.527       .  S
C87         C994   1.567       .  S
C88          H95   1.073       .  S
C88          C89   1.383       .  D
C89          C90   1.568       .  S
C90          C94   1.566       .  S
C90          C92   1.557       .  S
C90          H96   1.107       .  S
C91          H97   1.079       .  S
C91          C92   1.381       .  D
C92         C113   1.521       .  S
C93          H98   1.088       .  S
C93          C94   1.358       .  D
C94        C1013   1.503       .  S
C99         C100   1.537       .  S
C99         C105   1.508       .  S
C99         C103   1.520       .  S
C99         C978   1.549       .  S
C100        H107   1.079       .  S
C100        C101   1.381       .  D
C101        C102   1.550       .  S
C101        C116   1.521   1_556  S
C102        C106   1.561       .  S
C102        C104   1.571       .  S
C102        H108   1.108       .  S
C103        H109   1.078       .  S
C103        C104   1.381       .  D
C105        H110   1.089       .  S
C105        C106   1.353       .  D
C106       C1189   1.488       .  S
C111        C112   1.526       .  S
C111        C117   1.513       .  S
C111        C115   1.515       .  S
C111        C965   1.531       .  S
C112        H119   1.080       .  S
C112        C113   1.372       .  D
C113        C114   1.564       .  S
C114        C118   1.585       .  S
C114        C116   1.569       .  S
C114        H120   1.108       .  S
C115        H121   1.083       .  S
C115        C116   1.363       .  D
C117        H122   1.082       .  S
C117        C118   1.367       .  D
C118        C946   1.497       .  S
C123        C124   1.540       .  S
C123        C129   1.528       .  S
C123        C127   1.537       .  S
C123        C914   1.553       .  S
C124        H131   1.075       .  S
C124        C125   1.374       .  D
C125        C126   1.566       .  S
C125        C140   1.533   1_565  S
C126        C130   1.543       .  S
C126        C128   1.547       .  S
C126        H132   1.110       .  S
C127        H133   1.084       .  S
C127        C128   1.370       .  D
C128        C152   1.483       .  S
C129        H134   1.087       .  S
C129        C130   1.359       .  D
C130        C933   1.481       .  S
C135        C136   1.532       .  S
C135        C141   1.521       .  S
C135        C139   1.532       .  S
C135        C898   1.552       .  S
C136        H143   1.077       .  S
C136        C137   1.372       .  D
C137        C138   1.560       .  S
C137        C164   1.510       .  S
C138        C142   1.582       .  S
C138        C140   1.560       .  S
C138        H144   1.108       .  S
C139        H145   1.083       .  S
C139        C140   1.379       .  D
C141        H146   1.087       .  S
C141        C142   1.361       .  D
C142        C885   1.506       .  S
C147        C148   1.549       .  S
C147        C153   1.541       .  S
C147        C151   1.554       .  S
C147        C866   1.546       .  S
C148        H155   1.082       .  S
C148        C149   1.356       .  D
C149        C150   1.529       .  S
C149        C161   1.458   1_565  S
C150        C154   1.533       .  S
C150        C152   1.526       .  S
C150        H156   1.112       .  S
C151        H157   1.085       .  S
C151        C152   1.379       .  D
C153        H158   1.086       .  S
C153        C154   1.352       .  D
C154       C1205   1.481       .  S
C159        C160   1.513       .  S
C159        C165   1.532       .  S
C159        C163   1.535       .  S
C159        C834   1.518       .  S
C160        H167   1.087   1_545  S
C160        C161   1.353       .  D
C161        C162   1.551       .  S
C162        C166   1.543       .  S
C162        C164   1.549       .  S
C162        H168   1.109       .  S
C163        H169   1.079       .  S
C163        C164   1.378       .  D
C165        H170   1.085       .  S
C165        C166   1.353       .  D
C166        C850   1.471       .  S
O171       Ni177   1.910       .  S
O171        C192   1.267       .  A
O172       Ni195   1.916       .  S
O172        C181   1.273       .  A
O173       Ni177   1.894       .  S
O173       Ni195   1.910       .  S
O173       Ni189   1.891       .  S
O173        H196   0.967       .  S
C174        O191   1.267       .  A
C174        O183   1.275       .  A
C174        C786   1.457       .  S
O175       Ni194   1.917       .  S
O175        C181   1.268       .  A
O176       Ni194   1.905       .  S
O176        C178   1.270       .  A
Ni177       O180   1.908       .  S
Ni177       O182   1.898       .  S
C178        O188   1.286       .  A
C178       C1042   1.502       .  S
O179       Ni195   1.897       .  S
O179        C185   1.274       .  A
O180        C185   1.273       .  A
C181        C802   1.472       .  S
O182        C184   1.262       .  A
O183       Ni194   1.909       .  S
C184        O190   1.276       .  A
C184        C821   1.480       .  S
C185       C1122   1.445       .  S
H186        O187   0.966       .  S
O187       Ni195   1.901       .  S
O187       Ni189   1.905       .  S
O187       Ni194   1.885       .  S
O188       Ni189   1.968       .  S
Ni189       O193   1.910       .  S
Ni189       O191   1.897       .  S
O190       Ni195   1.965       .  S
C192        O193   1.272       .  A
C192        C853   1.465       .  S
O197       Ni203   1.921       .  S
O197        C218   1.269       .  A
O198       Ni221   1.946       .  S
O198        C207   1.275       .  A
O199       Ni203   1.919       .  S
O199       Ni221   1.913       .  S
O199       Ni215   1.908       .  S
O199        H222   0.967       .  S
C200        O217   1.268       .  A
C200        O209   1.271       .  A
C200       C1077   1.482       .  S
O201       Ni220   1.918       .  S
O201        C207   1.268       .  A
O202       Ni220   1.897       .  S
O202        C204   1.266       .  A
Ni203       O206   1.924       .  S
Ni203       O208   1.891       .  S
C204        O214   1.276       .  A
C204        C773   1.464       .  S
O205       Ni221   1.881       .  S
O205        C211   1.265       .  A
O206        C211   1.269       .  A
C207       C1010   1.502       .  S
O208        C210   1.267       .  A
O209       Ni220   1.935       .  S
C210        O216   1.285       .  A
C210        C930   1.482       .  S
C211        C754   1.472       .  S
H212        O213   0.964       .  S
O213       Ni221   1.921       .  S
O213       Ni215   1.930       .  S
O213       Ni220   1.928       .  S
O214       Ni215   1.941       .  S
Ni215       O219   1.920       .  S
Ni215       O217   1.903       .  S
O216       Ni221   1.969       .  S
C218        O219   1.268       .  A
C218        C738   1.482       .  S
O223       Ni229   1.908       .  S
O223        C244   1.269       .  A
O224       Ni247   1.911       .  S
O224        C233   1.272       .  A
O225       Ni229   1.880       .  S
O225       Ni247   1.887       .  S
O225       Ni241   1.922       .  S
O225        H248   0.966       .  S
C226        O243   1.280       .  A
C226        O235   1.277       .  A
C226        C690   1.494       .  S
O227       Ni246   1.928       .  S
O227        C233   1.274       .  A
O228       Ni246   1.898       .  S
O228        C230   1.269       .  A
Ni229       O232   1.909       .  S
Ni229       O234   1.901       .  S
C230        O240   1.271       .  A
C230       C1157   1.491       .  S
O231       Ni247   1.949       .  S
O231        C237   1.284       .  A
O232        C237   1.275       .  A
C233        C725   1.481       .  S
O234        C236   1.269       .  A
O235       Ni246   1.929       .  S
C236        O242   1.276       .  A
C236        C706   1.498       .  S
C237        C901   1.479       .  S
H238        O239   0.966       .  S
O239       Ni247   1.935       .  S
O239       Ni241   1.907       .  S
O239       Ni246   1.897       .  S
O240       Ni241   1.925       .  S
Ni241       O245   1.913       .  S
Ni241       O243   1.939       .  S
O242       Ni247   1.934       .  S
C244        O245   1.270       .  A
C244        C962   1.474       .  S
O249       Ni255   1.910       .  S
O249        C270   1.268       .  A
O250       Ni273   1.911       .  S
O250        C259   1.268       .  A
O251       Ni255   1.904       .  S
O251       Ni273   1.915       .  S
O251       Ni267   1.917       .  S
O251        H274   0.966       .  S
C252        O269   1.277       .  A
C252        O261   1.272       .  A
C252        C642   1.445       .  S
O253       Ni272   1.895       .  S
O253        C259   1.263       .  A
O254       Ni272   1.894       .  S
O254        C256   1.263       .  A
Ni255       O258   1.909       .  S
Ni255       O260   1.894       .  S
C256        O266   1.275       .  A
C256        C981   1.493       .  S
O257       Ni273   1.879       .  S
O257        C263   1.262       .  A
O258        C263   1.270       .  A
C259        C658   1.457       .  S
O260        C262   1.265       .  A
O261       Ni272   1.890       .  S
C262        O268   1.283       .  A
C262        C674   1.509       .  S
C263        C837   1.447       .  S
H264        O265   0.966       .  S
O265       Ni273   1.885       .  S
O265       Ni267   1.888       .  S
O265       Ni272   1.885       .  S
O266       Ni267   1.947       .  S
Ni267       O271   1.903       .  S
Ni267       O269   1.917       .  S
O268       Ni273   1.961       .  S
C270        O271   1.268       .  A
C270       C1138   1.462       .  S
C275        C276   1.527       .  S
C275        C281   1.534   1_556  S
C275        C279   1.531       .  S
C275       C1221   1.532       .  S
C276        H283   1.084       .  S
C276        C277   1.368   1_556  D
C277        C278   1.554       .  S
C277        C301   1.462       .  S
C278        C282   1.531       .  S
C278        C280   1.532       .  S
C278        H284   1.110       .  S
C279        H285   1.082       .  S
C279        C280   1.361   1_556  D
C280        C289   1.481   1_565  S
C281        H286   1.087       .  S
C281        C282   1.360       .  D
C282        C629   1.480       .  S
C287        C288   1.510       .  S
C287        C293   1.523   1_556  S
C287        C291   1.539       .  S
C287        C661   1.533       .  S
C288        H295   1.087       .  S
C288        C289   1.361   1_556  D
C289        C290   1.537       .  S
C290        C294   1.551       .  S
C290        C292   1.548       .  S
C290        H296   1.107       .  S
C291        H297   1.081       .  S
C291        C292   1.381   1_556  D
C292        C313   1.502       .  S
C293        H298   1.085       .  S
C293        C294   1.359       .  D
C294        C709   1.473       .  S
C299        C300   1.531       .  S
C299        C305   1.534       .  S
C299        C303   1.549       .  S
C299        C757   1.523       .  S
C300        H307   1.079       .  S
C300        C301   1.359       .  D
C301        C302   1.541   1_554  S
C302        C306   1.531       .  S
C302        C304   1.528   1_556  S
C302        H308   1.111       .  S
C303        H309   1.083   1_565  S
C303        C304   1.366       .  D
C304        C316   1.464   1_565  S
C305        H310   1.088       .  S
C305        C306   1.353   1_554  D
C306        C610   1.485       .  S
C311        C312   1.538       .  S
C311        C317   1.532       .  S
C311        C315   1.533       .  S
C311        C789   1.532       .  S
C312        H319   1.078       .  S
C312        C313   1.373   1_556  D
C313        C314   1.555       .  S
C314        C318   1.539       .  S
C314        C316   1.535       .  S
C314        H320   1.109       .  S
C315        H321   1.082       .  S
C315        C316   1.362   1_556  D
C317        H322   1.087       .  S
C317        C318   1.356   1_556  D
C318        C594   1.487       .  S
O323       Ni329   1.935       .  S
O323        C344   1.274       .  A
O324       Ni347   1.919       .  S
O324        C333   1.271       .  A
O325       Ni329   1.888       .  S
O325       Ni347   1.892       .  S
O325       Ni341   1.888       .  S
O325        H348   0.966       .  S
C326        O343   1.265       .  A
C326        O335   1.281       .  A
C326        C613   1.485       .  S
O327       Ni346   1.948       .  S
O327        C333   1.277       .  A
O328       Ni346   1.896       .  S
O328        C330   1.266       .  A
Ni329       O332   1.924       .  S
Ni329       O334   1.904       .  S
C330        O340   1.280       .  A
C330        C869   1.499       .  S
O331       Ni347   1.906       .  S
O331        C337   1.278       .  A
O332        C337   1.279       .  A
C333        C562   1.494       .  S
O334        C336   1.267       .  A
O335       Ni346   1.948       .  S
C336        O342   1.277       .  A
C336        C581   1.490       .  S
C337       C1061   1.488       .  S
H338        O339   0.966       .  S
O339       Ni347   1.917       .  S
O339       Ni341   1.915       .  S
O339       Ni346   1.908       .  S
O340       Ni341   1.946       .  S
Ni341       O345   1.918       .  S
Ni341       O343   1.889       .  S
O342       Ni347   1.944       .  S
C344        O345   1.271       .  A
C344       C1029   1.481       .  S
C349        C350   1.519       .  S
C349        C355   1.516   1_545  S
C349        C353   1.548       .  S
C349        C677   1.555       .  S
C350        H357   1.081       .  S
C350        C351   1.379       .  D
C351        C352   1.568   1_545  S
C351        C366   1.516   1_645  S
C352        C356   1.550       .  S
C352        C354   1.550       .  S
C352        H358   1.108       .  S
C353        H359   1.074       .  S
C353        C354   1.380   1_545  D
C354        C375   1.525       .  S
C355        H360   1.087       .  S
C355        C356   1.357       .  D
C356       C1237   1.471       .  S
C361        C362   1.536       .  S
C361        C367   1.525   1_545  S
C361        C365   1.529       .  S
C361        C818   1.559       .  S
C362        H369   1.081       .  S
C362        C363   1.378       .  D
C363        C364   1.558   1_545  S
C363        C390   1.522       .  S
C364        C368   1.567       .  S
C364        C366   1.557       .  S
C364        H370   1.107       .  S
C365        H371   1.081       .  S
C365        C366   1.376   1_545  D
C367        H372   1.079       .  S
C367        C368   1.358       .  D
C368        C565   1.494       .  S
C373        C374   1.526       .  S
C373        C379   1.521   1_545  S
C373        C377   1.531       .  S
C373        C722   1.548       .  S
C374        H381   1.080       .  S
C374        C375   1.373   1_545  D
C375        C376   1.566       .  S
C376        C380   1.585       .  S
C376        C378   1.555       .  S
C376        H382   1.107       .  S
C377        H383   1.082       .  S
C377        C378   1.371   1_545  D
C378        C387   1.515   1_655  S
C379        H384   1.080       .  S
C379        C380   1.361       .  D
C380        C546   1.511       .  S
C385        C386   1.532       .  S
C385        C391   1.524   1_545  S
C385        C389   1.544       .  S
C385        C533   1.565       .  S
C386        H393   1.079       .  S
C386        C387   1.380   1_545  D
C387        C388   1.555       .  S
C388        C392   1.544       .  S
C388        C390   1.560   1_565  S
C388        H394   1.106       .  S
C389        H395   1.073       .  S
C389        C390   1.381       .  D
C391        H396   1.088       .  S
C391        C392   1.359       .  D
C392        C741   1.482       .  S
O397       Ni403   1.942       .  S
O397        C418   1.273       .  A
O398       Ni421   1.900       .  S
O398        C407   1.267       .  A
O399       Ni403   1.922       .  S
O399       Ni421   1.906       .  S
O399       Ni415   1.899       .  S
O399        H422   0.966       .  S
C400        O417   1.258       .  A
C400        O409   1.273       .  A
C400       C1093   1.467       .  S
O401       Ni420   1.942       .  S
O401        C407   1.274       .  A
O402       Ni420   1.906       .  S
O402        C404   1.274       .  A
Ni403       O406   1.921       .  S
Ni403       O408   1.916       .  S
C404        O414   1.292       .  A
C404        C549   1.520       .  S
O405       Ni421   1.908       .  S
O405        C411   1.272       .  A
O406        C411   1.274       .  A
C407        C917   1.484       .  S
O408        C410   1.272       .  A
O409       Ni420   1.936       .  S
C410        O416   1.276       .  A
C410        C949   1.510       .  S
C411        C626   1.473       .  S
H412        O413   0.966       .  S
O413       Ni421   1.925       .  S
O413       Ni415   1.915       .  S
O413       Ni420   1.926       .  S
O414       Ni415   1.991       .  S
Ni415       O419   1.908       .  S
Ni415       O417   1.886       .  S
O416       Ni421   1.947       .  S
C418        O419   1.269       .  A
C418        C514   1.484       .  S
C423        C424   1.534       .  S
C423        C429   1.518   1_655  S
C423        C427   1.548       .  S
C423       C1250   1.552       .  S
C424        H431   1.073       .  S
C424        C425   1.377   1_655  D
C425        C426   1.548       .  S
C425        C452   1.512       .  S
C426        C430   1.552       .  S
C426        C428   1.545       .  S
C426        H432   1.109       .  S
C427        H433   1.083       .  S
C427        C428   1.376   1_655  D
C428        C440   1.489   1_556  S
C429        H434   1.087       .  S
C429        C430   1.356       .  D
C430        C578   1.485       .  S
C435        C436   1.526       .  S
C435        C441   1.518       .  S
C435        C439   1.550       .  S
C435        C770   1.534       .  S
C436        H443   1.081       .  S
C436        C437   1.369       .  D
C437        C438   1.565   1_455  S
C437        C464   1.517       .  S
C438        C442   1.548       .  S
C438        C440   1.552   1_655  S
C438        H444   1.108       .  S
C439        H445   1.081       .  S
C439        C440   1.370       .  D
C441        H446   1.087       .  S
C441        C442   1.353   1_455  D
C442        C517   1.481       .  S
C447        C448   1.530       .  S
C447        C453   1.530   1_655  S
C447        C451   1.519       .  S
C447        C645   1.526       .  S
C448        H455   1.086       .  S
C448        C449   1.358   1_655  D
C449        C450   1.548       .  S
C449        C461   1.476   1_556  S
C450        C454   1.551       .  S
C450        C452   1.558       .  S
C450        H456   1.109       .  S
C451        H457   1.080       .  S
C451        C452   1.369   1_655  D
C453        H458   1.080       .  S
C453        C454   1.359       .  D
C454        C805   1.473       .  S
C459        C460   1.543       .  S
C459        C465   1.538       .  S
C459        C463   1.543       .  S
C459        C501   1.562       .  S
C460        H467   1.086       .  S
C460        C461   1.368       .  D
C461        C462   1.537   1_455  S
C462        C466   1.550       .  S
C462        C464   1.545   1_655  S
C462        H468   1.109       .  S
C463        H469   1.081       .  S
C463        C464   1.383       .  D
C465        H470   1.082       .  S
C465        C466   1.359   1_455  D
C466        C693   1.495       .  S
O471       Ni477   1.936       .  S
O471        C492   1.273       .  A
O472       Ni495   1.922       .  S
O472        C481   1.273       .  A
O473       Ni477   1.915       .  S
O473       Ni495   1.914       .  S
O473       Ni489   1.925       .  S
O473        H496   0.966       .  S
C474        O491   1.273       .  A
C474        O483   1.283       .  A
C474        C597   1.493       .  S
O475       Ni494   1.948       .  S
O475        C481   1.277       .  A
O476       Ni494   1.900       .  S
O476        C478   1.268       .  A
Ni477       O480   1.935       .  S
Ni477       O482   1.905       .  S
C478        O488   1.293       .  A
C478        C882   1.513       .  S
O479       Ni495   1.911       .  S
O479        C485   1.275       .  A
O480        C485   1.277       .  A
C481        C530   1.492       .  S
O482        C484   1.270       .  A
O483       Ni494   1.939       .  S
C484        O490   1.282       .  A
C484        C498   1.512       .  S
C485       C1106   1.484       .  S
H486        O487   0.966       .  S
O487       Ni495   1.911       .  S
O487       Ni489   1.902       .  S
O487       Ni494   1.894       .  S
O488       Ni489   1.989       .  S
Ni489       O493   1.929       .  S
Ni489       O491   1.912       .  S
O490       Ni495   1.960       .  S
C492        O493   1.277       .  A
C492        C997   1.491       .  S
C497        C498   1.411       .  A
C497        C502   1.410       .  A
C497        H504   1.084       .  S
C498        C499   1.417       .  A
C499        C506   1.508       .  S
C499        C500   1.413       .  A
C500        C501   1.419       .  A
C500        H505   1.076       .  S
C501        C502   1.425       .  A
C502        C503   1.510       .  S
C503        H507   1.111       .  S
C503        H508   1.111       .  S
C503        H509   1.104       .  S
C506        H510   1.110       .  S
C506        H511   1.110       .  S
C506        H512   1.111       .  S
C513        C514   1.399       .  A
C513        C518   1.402       .  A
C513        H520   1.085       .  S
C514        C515   1.416       .  A
C515        C522   1.503       .  S
C515        C516   1.408       .  A
C516        C517   1.401       .  A
C516        H521   1.083       .  S
C517        C518   1.418       .  A
C518        C519   1.506       .  S
C519        H523   1.108       .  S
C519        H524   1.106       .  S
C519        H525   1.110       .  S
C522        H526   1.110       .  S
C522        H527   1.106       .  S
C522        H528   1.111       .  S
C529        C530   1.397       .  A
C529        C534   1.413       .  A
C529        H536   1.084       .  S
C530        C531   1.410       .  A
C531        C538   1.508       .  S
C531        C532   1.413       .  A
C532        C533   1.419       .  A
C532        H537   1.075       .  S
C533        C534   1.435       .  A
C534        C535   1.512       .  S
C535        H539   1.111       .  S
C535        H540   1.107       .  S
C535        H541   1.107       .  S
C538        H542   1.111       .  S
C538        H543   1.110       .  S
C538        H544   1.111       .  S
C545        C546   1.416       .  A
C545        C550   1.419       .  A
C545        H552   1.084       .  S
C546        C547   1.411       .  A
C547        C554   1.502       .  S
C547        C548   1.413       .  A
C548        C549   1.416       .  A
C548        H553   1.084       .  S
C549        C550   1.418       .  A
C550        C551   1.505       .  S
C551        H555   1.111       .  S
C551        H556   1.110       .  S
C551        H557   1.110       .  S
C554        H558   1.110       .  S
C554        H559   1.108       .  S
C554        H560   1.110       .  S
C561        C562   1.405       .  A
C561        C566   1.407       .  A
C561        H568   1.085       .  S
C562        C563   1.413       .  A
C563        C570   1.504       .  S
C563        C564   1.416       .  A
C564        C565   1.410       .  A
C564        H569   1.084       .  S
C565        C566   1.416       .  A
C566        C567   1.504       .  S
C567        H571   1.111       .  S
C567        H572   1.110       .  S
C567        H573   1.109       .  S
C570        H574   1.110       .  S
C570        H575   1.110       .  S
C570        H576   1.111       .  S
C577        C578   1.396       .  A
C577        C582   1.405       .  A
C577        H584   1.082       .  S
C578        C579   1.417       .  A
C579        C586   1.508       .  S
C579        C580   1.409       .  A
C580        C581   1.404       .  A
C580        H585   1.084       .  S
C581        C582   1.421       .  A
C582        C583   1.508       .  S
C583        H587   1.111       .  S
C583        H588   1.109       .  S
C583        H589   1.110       .  S
C586        H590   1.109       .  S
C586        H591   1.108       .  S
C586        H592   1.111       .  S
C593        C594   1.398       .  A
C593        C598   1.410       .  A
C593        H600   1.084       .  S
C594        C595   1.417       .  A
C595        C602   1.503       .  S
C595        C596   1.399       .  A
C596        C597   1.401       .  A
C596        H601   1.084       .  S
C597        C598   1.426       .  A
C598        C599   1.508       .  S
C599        H603   1.111       .  S
C599        H604   1.111       .  S
C599        H605   1.108       .  S
C602        H606   1.110       .  S
C602        H607   1.102       .  S
C602        H608   1.110       .  S
C609        C610   1.398       .  A
C609        C614   1.405       .  A
C609        H616   1.084       .  S
C610        C611   1.421       .  A
C611        C618   1.508       .  S
C611        C612   1.401       .  A
C612        C613   1.399       .  A
C612        H617   1.084       .  S
C613        C614   1.424       .  A
C614        C615   1.510       .  S
C615        H619   1.111       .  S
C615        H620   1.110       .  S
C615        H621   1.109       .  S
C618        H622   1.105   1_556  S
C618        H623   1.110   1_556  S
C618        H624   1.109       .  S
C625        C626   1.405       .  A
C625        C630   1.403       .  A
C625        H632   1.085       .  S
C626        C627   1.411       .  A
C627        C634   1.507       .  S
C627        C628   1.402       .  A
C628        C629   1.404       .  A
C628        H633   1.084       .  S
C629        C630   1.409       .  A
C630        C631   1.503       .  S
C631        H635   1.111       .  S
C631        H636   1.110       .  S
C631        H637   1.109       .  S
C634        H638   1.108       .  S
C634        H639   1.110       .  S
C634        H640   1.111       .  S
C641        C642   1.391       .  A
C641        C646   1.397       .  A
C641        H648   1.084       .  S
C642        C643   1.400       .  A
C643        C650   1.510       .  S
C643        C644   1.392       .  A
C644        C645   1.413       .  A
C644        H649   1.072       .  S
C645        C646   1.432       .  A
C646        C647   1.518       .  S
C647        H651   1.111       .  S
C647        H652   1.106       .  S
C647        H653   1.106       .  S
C650        H654   1.107       .  S
C650        H655   1.110       .  S
C650        H656   1.111       .  S
C657        C658   1.394       .  A
C657        C662   1.405       .  A
C657        H664   1.082       .  S
C658        C659   1.403       .  A
C659        C666   1.511       .  S
C659        C660   1.393       .  A
C660        C661   1.414       .  A
C660        H665   1.077       .  S
C661        C662   1.432       .  A
C662        C663   1.512       .  S
C663        H667   1.111       .  S
C663        H668   1.105       .  S
C663        H669   1.108       .  S
C666        H670   1.109       .  S
C666        H671   1.110       .  S
C666        H672   1.111       .  S
C673        C674   1.407       .  A
C673        C678   1.412       .  A
C673        H680   1.084       .  S
C674        C675   1.429       .  A
C675        C682   1.512       .  S
C675        C676   1.404       .  A
C676        C677   1.405       .  A
C676        H681   1.078       .  S
C677        C678   1.429       .  A
C678        C679   1.509       .  S
C679        H683   1.111       .  S
C679        H684   1.106       .  S
C679        H685   1.111       .  S
C682        H686   1.110       .  S
C682        H687   1.110       .  S
C682        H688   1.111       .  S
C689        C690   1.409       .  A
C689        C694   1.414       .  A
C689        H696   1.084       .  S
C690        C691   1.415       .  A
C691        C698   1.507       .  S
C691        C692   1.409       .  A
C692        C693   1.405       .  A
C692        H697   1.084       .  S
C693        C694   1.412       .  A
C694        C695   1.505       .  S
C695        H699   1.111       .  S
C695        H700   1.110       .  S
C695        H701   1.111       .  S
C698        H702   1.110       .  S
C698        H703   1.109       .  S
C698        H704   1.111       .  S
C705        C706   1.415       .  A
C705        C710   1.401       .  A
C705        H712   1.083       .  S
C706        C707   1.420       .  A
C707        C714   1.507       .  S
C707        C708   1.406       .  A
C708        C709   1.404       .  A
C708        H713   1.085       .  S
C709        C710   1.404       .  A
C710        C711   1.508       .  S
C711        H715   1.111       .  S
C711        H716   1.110       .  S
C711        H717   1.110       .  S
C714        H718   1.110       .  S
C714        H719   1.110       .  S
C714        H720   1.111       .  S
C721        C722   1.419       .  A
C721        C726   1.407       .  A
C721        H728   1.073   1_545  S
C722        C723   1.431       .  A
C723        C730   1.517       .  S
C723        C724   1.402       .  A
C724        C725   1.400       .  A
C724        H729   1.085       .  S
C725        C726   1.406       .  A
C726        C727   1.507       .  S
C727        H731   1.111       .  S
C727        H732   1.111       .  S
C727        H733   1.109       .  S
C730        H734   1.106       .  S
C730        H735   1.105       .  S
C730        H736   1.111       .  S
C737        C738   1.405       .  A
C737        C742   1.412       .  A
C737        H744   1.084       .  S
C738        C739   1.415       .  A
C739        C746   1.509       .  S
C739        C740   1.402       .  A
C740        C741   1.400       .  A
C740        H745   1.083       .  S
C741        C742   1.414       .  A
C742        C743   1.506       .  S
C743        H747   1.111       .  S
C743        H748   1.110       .  S
C743        H749   1.110       .  S
C746        H750   1.109       .  S
C746        H751   1.110       .  S
C746        H752   1.111       .  S
C753        C754   1.399       .  A
C753        C758   1.390       .  A
C753        H760   1.084       .  S
C754        C755   1.410       .  A
C755        C762   1.510       .  S
C755        C756   1.401       .  A
C756        C757   1.415       .  A
C756        H761   1.076       .  S
C757        C758   1.426       .  A
C758        C759   1.514       .  S
C759        H763   1.111       .  S
C759        H764   1.108       .  S
C759        H765   1.109       .  S
C762        H766   1.108       .  S
C762        H767   1.110       .  S
C762        H768   1.111       .  S
C769        C770   1.413       .  A
C769        C774   1.405       .  A
C769        H776   1.076       .  S
C770        C771   1.435       .  A
C771        C778   1.520       .  S
C771        C772   1.396       .  A
C772        C773   1.392       .  A
C772        H777   1.085       .  S
C773        C774   1.406       .  A
C774        C775   1.507       .  S
C775        H779   1.111       .  S
C775        H780   1.109       .  S
C775        H781   1.111       .  S
C778        H782   1.105       .  S
C778        H783   1.105       .  S
C778        H784   1.111       .  S
C785        C786   1.389       .  A
C785        C790   1.393       .  A
C785        H792   1.085       .  S
C786        C787   1.407       .  A
C787        C794   1.507       .  S
C787        C788   1.397       .  A
C788        C789   1.413       .  A
C788        H793   1.076       .  S
C789        C790   1.430       .  A
C790        C791   1.505       .  S
C791        H795   1.111       .  S
C791        H796   1.100       .  S
C791        H797   1.107       .  S
C794        H798   1.110       .  S
C794        H799   1.110       .  S
C794        H800   1.111       .  S
C801        C802   1.400       .  A
C801        C806   1.403       .  A
C801        H808   1.084       .  S
C802        C803   1.414       .  A
C803        C810   1.508       .  S
C803        C804   1.404       .  A
C804        C805   1.401       .  A
C804        H809   1.084       .  S
C805        C806   1.414       .  A
C806        C807   1.506       .  S
C807        H811   1.111       .  S
C807        H812   1.108       .  S
C807        H813   1.110       .  S
C810        H814   1.109       .  S
C810        H815   1.111       .  S
C810        H816   1.111       .  S
C817        C818   1.420       .  A
C817        C822   1.406       .  A
C817        H824   1.072       .  S
C818        C819   1.432       .  A
C819        C826   1.514       .  S
C819        C820   1.411       .  A
C820        C821   1.400       .  A
C820        H825   1.085       .  S
C821        C822   1.404       .  A
C822        C823   1.508       .  S
C823        H827   1.111       .  S
C823        H828   1.110       .  S
C823        H829   1.110       .  S
C826        H830   1.106       .  S
C826        H831   1.106       .  S
C826        H832   1.111       .  S
C833        C834   1.409       .  A
C833        C838   1.390       .  A
C833        H840   1.081       .  S
C834        C835   1.419       .  A
C835        C842   1.509       .  S
C835        C836   1.394       .  A
C836        C837   1.397       .  A
C836        H841   1.085       .  S
C837        C838   1.405       .  A
C838        C839   1.509       .  S
C839        H843   1.111       .  S
C839        H844   1.110       .  S
C839        H845   1.106       .  S
C842        H846   1.111       .  S
C842        H847   1.107       .  S
C842        H848   1.111       .  S
C849        C850   1.399       .  A
C849        C854   1.402       .  A
C849        H856   1.084       .  S
C850        C851   1.417       .  A
C851        C858   1.507       .  S
C851        C852   1.401       .  A
C852        C853   1.397       .  A
C852        H857   1.085       .  S
C853        C854   1.416       .  A
C854        C855   1.509       .  S
C855        H859   1.111       .  S
C855        H860   1.110       .  S
C855        H861   1.111       .  S
C858        H862   1.109       .  S
C858        H863   1.110       .  S
C858        H864   1.110       .  S
C865        C866   1.406       .  A
C865        C870   1.404       .  A
C865        H872   1.079       .  S
C866        C867   1.423       .  A
C867        C874   1.506       .  S
C867        C868   1.406       .  A
C868        C869   1.405       .  A
C868        H873   1.084       .  S
C869        C870   1.426       .  A
C870        C871   1.512       .  S
C871        H875   1.111       .  S
C871        H876   1.110       .  S
C871        H877   1.110       .  S
C874        H878   1.110       .  S
C874        H879   1.106       .  S
C874        H880   1.110       .  S
C881        C882   1.407       .  A
C881        C886   1.422       .  A
C881        H888   1.083       .  S
C882        C883   1.429       .  A
C883        C890   1.511       .  S
C883        C884   1.413       .  A
C884        C885   1.401       .  A
C884        H889   1.085       .  S
C885        C886   1.420       .  A
C886        C887   1.504       .  S
C887        H891   1.111       .  S
C887        H892   1.110       .  S
C887        H893   1.111       .  S
C890        H894   1.110       .  S
C890        H895   1.109       .  S
C890        H896   1.111       .  S
C897        C898   1.423       .  A
C897        C902   1.411       .  A
C897        H904   1.079       .  S
C898        C899   1.426       .  A
C899        C906   1.511       .  S
C899        C900   1.403       .  A
C900        C901   1.402       .  A
C900        H905   1.085       .  S
C901        C902   1.402       .  A
C902        C903   1.505       .  S
C903        H907   1.111       .  S
C903        H908   1.110       .  S
C903        H909   1.110       .  S
C906        H910   1.111       .  S
C906        H911   1.104       .  S
C906        H912   1.111       .  S
C913        C914   1.416       .  A
C913        C918   1.402       .  A
C913        H920   1.074       .  S
C914        C915   1.434       .  A
C915        C922   1.510       .  S
C915        C916   1.411       .  A
C916        C917   1.399       .  A
C916        H921   1.085       .  S
C917        C918   1.408       .  A
C918        C919   1.509       .  S
C919        H923   1.111       .  S
C919        H924   1.107       .  S
C919        H925   1.111       .  S
C922        H926   1.110       .  S
C922        H927   1.099       .  S
C922        H928   1.111       .  S
C929        C930   1.398       .  A
C929        C934   1.407       .  A
C929        H936   1.084       .  S
C930        C931   1.423       .  A
C931        C938   1.505       .  S
C931        C932   1.401       .  A
C932        C933   1.393       .  A
C932        H937   1.085       .  S
C933        C934   1.420       .  A
C934        C935   1.506       .  S
C935        H939   1.110       .  S
C935        H940   1.111       .  S
C935        H941   1.106       .  S
C938        H942   1.109       .  S
C938        H943   1.105       .  S
C938        H944   1.111       .  S
C945        C946   1.410       .  A
C945        C950   1.413       .  A
C945        H952   1.084       .  S
C946        C947   1.408       .  A
C947        C954   1.502       .  S
C947        C948   1.411       .  A
C948        C949   1.413       .  A
C948        H953   1.083       .  S
C949        C950   1.422       .  A
C950        C951   1.508       .  S
C951        H955   1.111       .  S
C951        H956   1.110       .  S
C951        H957   1.110       .  S
C954        H958   1.110       .  S
C954        H959   1.106       .  S
C954        H960   1.111       .  S
C961        C962   1.397       .  A
C961        C966   1.390       .  A
C961        H968   1.086       .  S
C962        C963   1.409       .  A
C963        C970   1.507       .  S
C963        C964   1.407       .  A
C964        C965   1.415       .  A
C964        H969   1.076       .  S
C965        C966   1.430       .  A
C966        C967   1.518       .  S
C967        H971   1.111       .  S
C967        H972   1.101       .  S
C967        H973   1.111       .  S
C970        H974   1.110       .  S
C970        H975   1.110       .  S
C970        H976   1.111       .  S
C977        C978   1.412       .  A
C977        C982   1.400       .  A
C977        H984   1.079       .  S
C978        C979   1.431       .  A
C979        C986   1.510       .  S
C979        C980   1.415       .  A
C980        C981   1.403       .  A
C980        H985   1.084       .  S
C981        C982   1.415       .  A
C982        C983   1.512       .  S
C983        H987   1.111       .  S
C983        H988   1.109       .  S
C983        H989   1.109       .  S
C986        H990   1.109       .  S
C986        H991   1.106       .  S
C986        H992   1.111       .  S
C993        C994   1.418       .  A
C993        C998   1.413       .  A
C993       H1000   1.075       .  S
C994        C995   1.437       .  A
C995       C1002   1.514       .  S
C995        C996   1.414       .  A
C996        C997   1.398       .  A
C996       H1001   1.084       .  S
C997        C998   1.411       .  A
C998        C999   1.508       .  S
C999       H1003   1.111       .  S
C999       H1004   1.110       .  S
C999       H1005   1.109       .  S
C1002      H1006   1.106       .  S
C1002      H1007   1.106       .  S
C1002      H1008   1.111       .  S
C1009      C1010   1.405       .  A
C1009      C1014   1.404       .  A
C1009      H1016   1.085       .  S
C1010      C1011   1.415       .  A
C1011      C1018   1.504       .  S
C1011      C1012   1.423       .  A
C1012      C1013   1.413       .  A
C1012      H1017   1.084       .  S
C1013      C1014   1.417       .  A
C1014      C1015   1.507       .  S
C1015      H1019   1.109       .  S
C1015      H1020   1.110       .  S
C1015      H1021   1.108       .  S
C1018      H1022   1.110       .  S
C1018      H1023   1.111       .  S
C1018      H1024   1.111       .  S
C1025      C1026   1.407       .  A
C1025      C1030   1.409       .  A
C1025      H1032   1.084       .  S
C1026      C1027   1.408       .  A
C1027      C1034   1.502       .  S
C1027      C1028   1.406       .  A
C1028      C1029   1.405       .  A
C1028      H1033   1.084       .  S
C1029      C1030   1.411       .  A
C1030      C1031   1.505       .  S
C1031      H1035   1.111       .  S
C1031      H1036   1.110       .  S
C1031      H1037   1.110       .  S
C1034      H1038   1.111       .  S
C1034      H1039   1.110       .  S
C1034      H1040   1.110       .  S
C1041      C1042   1.405       .  A
C1041      C1046   1.410       .  A
C1041      H1048   1.085       .  S
C1042      C1043   1.409       .  A
C1043      C1050   1.506       .  S
C1043      C1044   1.418       .  A
C1044      C1045   1.425       .  A
C1044      H1049   1.075       .  S
C1045      C1046   1.430       .  A
C1046      C1047   1.515       .  S
C1047      H1051   1.111       .  S
C1047      H1052   1.107       .  S
C1047      H1053   1.104       .  S
C1050      H1054   1.110       .  S
C1050      H1055   1.106       .  S
C1050      H1056   1.111       .  S
C1057      C1058   1.411       .  A
C1057      C1062   1.400       .  A
C1057      H1064   1.076       .  S
C1058      C1059   1.427       .  A
C1059      C1066   1.516       .  S
C1059      C1060   1.400       .  A
C1060      C1061   1.404       .  A
C1060      H1065   1.084       .  S
C1061      C1062   1.417       .  A
C1062      C1063   1.511       .  S
C1063      H1067   1.111       .  S
C1063      H1068   1.108       .  S
C1063      H1069   1.110       .  S
C1066      H1070   1.106       .  S
C1066      H1071   1.107       .  S
C1066      H1072   1.111       .  S
C1073      C1074   1.401       .  A
C1073      C1078   1.404       .  A
C1073      H1080   1.085       .  S
C1074      C1075   1.406       .  A
C1075      C1082   1.498       .  S
C1075      C1076   1.401       .  A
C1076      C1077   1.404       .  A
C1076      H1081   1.084       .  S
C1077      C1078   1.418       .  A
C1078      C1079   1.506       .  S
C1079      H1083   1.111       .  S
C1079      H1084   1.110       .  S
C1079      H1085   1.108       .  S
C1082      H1086   1.109       .  S
C1082      H1087   1.110       .  S
C1082      H1088   1.110       .  S
C1089      C1090   1.407       .  A
C1089      C1094   1.402       .  A
C1089      H1096   1.083       .  S
C1090      C1091   1.407       .  A
C1091      C1098   1.507       .  S
C1091      C1092   1.400       .  A
C1092      C1093   1.404       .  A
C1092      H1097   1.085       .  S
C1093      C1094   1.407       .  A
C1094      C1095   1.505       .  S
C1095      H1099   1.111       .  S
C1095      H1100   1.110       .  S
C1095      H1101   1.109       .  S
C1098      H1102   1.110       .  S
C1098      H1103   1.110       .  S
C1098      H1104   1.111       .  S
C1105      C1106   1.407       .  A
C1105      C1110   1.405       .  A
C1105      H1112   1.084       .  S
C1106      C1107   1.411       .  A
C1107      C1114   1.507       .  S
C1107      C1108   1.407       .  A
C1108      C1109   1.411       .  A
C1108      H1113   1.083       .  S
C1109      C1110   1.410       .  A
C1110      C1111   1.505       .  S
C1111      H1115   1.111       .  S
C1111      H1116   1.110       .  S
C1111      H1117   1.110       .  S
C1114      H1118   1.109       .  S
C1114      H1119   1.110       .  S
C1114      H1120   1.111       .  S
C1121      C1122   1.396       .  A
C1121      C1126   1.405       .  A
C1121      H1128   1.085       .  S
C1122      C1123   1.402       .  A
C1123      C1130   1.515       .  S
C1123      C1124   1.378       .  A
C1124      C1125   1.415       .  A
C1124      H1129   1.083       .  S
C1125      C1126   1.428       .  A
C1126      C1127   1.505       .  S
C1127      H1131   1.111       .  S
C1127      H1132   1.109       .  S
C1127      H1133   1.110       .  S
C1130      H1134   1.108       .  S
C1130      H1135   1.110       .  S
C1130      H1136   1.111       .  S
C1137      C1138   1.397       .  A
C1137      C1142   1.400       .  A
C1137      H1144   1.085       .  S
C1138      C1139   1.406       .  A
C1139      C1146   1.505       .  S
C1139      C1140   1.398       .  A
C1140      C1141   1.410       .  A
C1140      H1145   1.079       .  S
C1141      C1142   1.427       .  A
C1142      C1143   1.511       .  S
C1143      H1147   1.111       .  S
C1143      H1148   1.110       .  S
C1143      H1149   1.105       .  S
C1146      H1150   1.110       .  S
C1146      H1151   1.109       .  S
C1146      H1152   1.111       .  S
C1153      C1154   1.398       .  A
C1153      C1158   1.405       .  A
C1153      H1160   1.084       .  S
C1154      C1155   1.405       .  A
C1155      C1162   1.507       .  S
C1155      C1156   1.395       .  A
C1156      C1157   1.410       .  A
C1156      H1161   1.083       .  S
C1157      C1158   1.423       .  A
C1158      C1159   1.508       .  S
C1159      H1163   1.111       .  S
C1159      H1164   1.110       .  S
C1159      H1165   1.110       .  S
C1162      H1166   1.110       .  S
C1162      H1167   1.108       .  S
C1162      H1168   1.110       .  S
C1169      C1170   1.398       .  A
C1169      C1174   1.400       .  A
C1169      H1176   1.079       .  S
C1170      C1171   1.431       .  A
C1171      C1178   1.513       .  S
C1171      C1172   1.399       .  A
C1172      C1173   1.398       .  A
C1172      H1177   1.078       .  S
C1173      C1174   1.427       .  A
C1174      C1175   1.514       .  S
C1175      H1179   1.111       .  S
C1175      H1180   1.108       .  S
C1175      H1181   1.106       .  S
C1178      H1182   1.109       .  S
C1178      H1183   1.109       .  S
C1178      H1184   1.110       .  S
C1185      C1186   1.408       .  A
C1185      C1190   1.396       .  A
C1185      H1192   1.084       .  S
C1186      C1187   1.423       .  A
C1187      C1194   1.505       .  S
C1187      C1188   1.418       .  A
C1188      C1189   1.405       .  A
C1188      H1193   1.084       .  S
C1189      C1190   1.417       .  A
C1190      C1191   1.509       .  S
C1191      H1195   1.110       .  S
C1191      H1196   1.110       .  S
C1191      H1197   1.104       .  S
C1194      H1198   1.110       .  S
C1194      H1199   1.110       .  S
C1194      H1200   1.111       .  S
C1201      C1202   1.402       .  A
C1201      C1206   1.402       .  A
C1201      H1208   1.084       .  S
C1202      C1203   1.415       .  A
C1203      C1210   1.505       .  S
C1203      C1204   1.409       .  A
C1204      C1205   1.403       .  A
C1204      H1209   1.084       .  S
C1205      C1206   1.413       .  A
C1206      C1207   1.507       .  S
C1207      H1211   1.111       .  S
C1207      H1212   1.105       .  S
C1207      H1213   1.108       .  S
C1210      H1214   1.110       .  S
C1210      H1215   1.110       .  S
C1210      H1216   1.111       .  S
C1217      C1218   1.401       .  A
C1217      C1222   1.403       .  A
C1217      H1224   1.085       .  S
C1218      C1219   1.398       .  A
C1219      C1226   1.511       .  S
C1219      C1220   1.391       .  A
C1220      C1221   1.420       .  A
C1220      H1225   1.075       .  S
C1221      C1222   1.424       .  A
C1222      C1223   1.510       .  S
C1223      H1227   1.111       .  S
C1223      H1228   1.108       .  S
C1223      H1229   1.109       .  S
C1226      H1230   1.108       .  S
C1226      H1231   1.110       .  S
C1226      H1232   1.111       .  S
C1233      C1234   1.408       .  A
C1233      C1238   1.395       .  A
C1233      H1240   1.083       .  S
C1234      C1235   1.425       .  A
C1235      C1242   1.508       .  S
C1235      C1236   1.408       .  A
C1236      C1237   1.398       .  A
C1236      H1241   1.084       .  S
C1237      C1238   1.413       .  A
C1238      C1239   1.512       .  S
C1239      H1243   1.111       .  S
C1239      H1244   1.105       .  S
C1239      H1245   1.108       .  S
C1242      H1246   1.110       .  S
C1242      H1247   1.110       .  S
C1242      H1248   1.111       .  S
C1249      C1250   1.420       .  A
C1249      C1254   1.404       .  A
C1249      H1256   1.077       .  S
C1250      C1251   1.427       .  A
C1251      C1258   1.508       .  S
C1251      C1252   1.410       .  A
C1252      C1253   1.402       .  A
C1252      H1257   1.085       .  S
C1253      C1254   1.405       .  A
C1254      C1255   1.505       .  S
C1255      H1259   1.111       .  S
C1255      H1260   1.106       .  S
C1255      H1261   1.110       .  S
C1258      H1262   1.102       .  S
C1258      H1263   1.108       .  S
C1258      H1264   1.111       .  S
