geometry optimzed in LAMMPS
_audit_creation_date              2020-12-01 
_audit_creation_method            'lammps2cif' 
_symmetry_space_group_name_H-M    'P1' 
_symmetry_Int_Tables_number       1 
_symmetry_cell_setting            triclinic 
loop_ 
_symmetry_equiv_pos_as_xyz 
  x,y,z 
_cell_length_a                    55.73802124 
_cell_length_b                    55.7420300316886 
_cell_length_c                    27.694217111550845 
_cell_angle_alpha                 89.99234263457251 
_cell_angle_beta                  90.0049830634748 
_cell_angle_gamma                 90.0918862229752 
loop_ 
_atom_site_label 
_atom_site_type_symbol 
_atom_site_fract_x 
_atom_site_fract_y 
_atom_site_fract_z 
_atom_site_charge 
N1          N  0.53605296  0.82319071  0.99745148    -0.36300
N2          N  0.49906281  0.82521910  0.92369205    -0.56900
N3          N  0.46242024  0.82370988  0.99895919    -0.36300
N4          N  0.49946178  0.82587556  0.07260912    -0.56900
C5          C  0.54936787  0.82822257  0.95786010     0.27300
C6          C  0.54962744  0.82871958  0.03640287     0.27300
C7          C  0.44889254  0.82890220  0.95973451     0.27300
C8          C  0.44907890  0.82900865  0.03841593     0.27300
C9          C  0.51829316  0.82094351  0.89524141     0.35900
C10         C  0.47947923  0.82140643  0.89596576     0.35900
C11         C  0.51902255  0.82183441  0.10030363     0.35900
C12         C  0.48016582  0.82203324  0.10122981     0.35900
C13         C  0.57161267  0.83697947  0.97181538    -0.21600
C14         C  0.57177893  0.83728790  0.02138097    -0.21600
C15         C  0.42671786  0.83746178  0.97443827    -0.21600
C16         C  0.42683956  0.83753864  0.02404396    -0.21600
C17         C  0.51090382  0.81447062  0.84926215    -0.22600
C18         C  0.48630254  0.81477095  0.84971232    -0.22600
C19         C  0.51212339  0.81545979  0.14664736    -0.22600
C20         C  0.48751343  0.81559709  0.14723958    -0.22600
C21         C  0.54239595  0.82410670  0.90955275    -0.18000
C22         C  0.54299454  0.82516302  0.08510518    -0.18000
C23         C  0.45605388  0.82541367  0.08700149    -0.18000
C24         C  0.45557615  0.82510439  0.91108033    -0.18000
H25         H  0.58622891  0.84263354  0.94872312     0.14900
H26         H  0.58656017  0.84319993  0.04377492     0.14900
H27         H  0.41194607  0.84312061  0.95179861     0.14900
H28         H  0.41219286  0.84331037  0.04688075     0.14900
H29         H  0.52203435  0.81002741  0.81853783     0.13200
H30         H  0.47479118  0.81058248  0.81938859     0.13200
H31         H  0.52359398  0.81116218  0.17695062     0.13200
H32         H  0.47634499  0.81140517  0.17806885     0.13200
H33         H  0.51985256  0.81408056  0.99793925     0.26500
H34         H  0.47863349  0.81470773  0.99879301     0.26500
N35         N  0.63201512  0.85237999  0.66643810    -0.27000
N36         N  0.61294958  0.86248652  0.68617694    -0.34800
C37         C  0.60686914  0.88195666  0.66044866     0.01300
C38         C  0.62284480  0.88406385  0.62267758     0.07400
C39         C  0.63849943  0.86504229  0.62726351    -0.05700
H40         H  0.59211307  0.89381981  0.66891541     0.08000
H41         H  0.65381516  0.86108175  0.60465091     0.09200
Cu42       Cu  0.59640722  0.84986705  0.74756876     0.44200
Cu43       Cu  0.64937944  0.82301941  0.69555558     0.42000
Cu44       Cu  0.62617874  0.80002948  0.80768333     0.43900
N45         N  0.58350011  0.83353061  0.80898611    -0.34400
N46         N  0.59442587  0.81566622  0.83140397    -0.28600
C47         C  0.58141757  0.80944820  0.87033991    -0.04700
C48         C  0.56133204  0.82396982  0.87208950     0.07500
C49         C  0.56323693  0.83905779  0.83275693     0.01300
H50         H  0.58618711  0.79538688  0.89547995     0.08900
H51         H  0.55096254  0.85318315  0.82247558     0.08000
N52         N  0.65679141  0.78662636  0.77432792    -0.35800
N53         N  0.66509834  0.79510501  0.73306639    -0.28000
C54         C  0.68482583  0.78280983  0.72046239    -0.03200
C55         C  0.68932669  0.76556609  0.75544986     0.05400
C56         C  0.67105004  0.76859295  0.78908527     0.03500
H57         H  0.69490725  0.78619421  0.68782414     0.08600
H58         H  0.66817710  0.75850587  0.82192133     0.07400
N59         N  0.40434082  0.81665008  0.83096296    -0.27000
N60         N  0.41501075  0.83502274  0.80970623    -0.34800
C61         C  0.43477771  0.84094301  0.83485876     0.01300
C62         C  0.43650854  0.82559732  0.87390107     0.07400
C63         C  0.41690482  0.81048297  0.87049042    -0.05700
H64         H  0.44699050  0.85529878  0.82540692     0.08000
H65         H  0.41237871  0.79581397  0.89441464     0.09200
Cu66       Cu  0.40209702  0.85114237  0.74768239     0.44200
Cu67       Cu  0.37412202  0.79998419  0.80335042     0.42000
Cu68       Cu  0.35070155  0.82320487  0.69018600     0.43900
N69         N  0.38525223  0.86486180  0.68714678    -0.34400
N70         N  0.36663799  0.85463285  0.66580072    -0.28600
C71         C  0.36021142  0.86796455  0.62743844    -0.04700
C72         C  0.37545881  0.88753565  0.62479643     0.07500
C73         C  0.39110255  0.88499663  0.66314657     0.01300
H74         H  0.34556091  0.86373567  0.60324893     0.08900
H75         H  0.40581282  0.89677879  0.67260423     0.08000
N76         N  0.33740780  0.79287348  0.72451635    -0.35800
N77         N  0.34577636  0.78473610  0.76603547    -0.28000
C78         C  0.33287650  0.76551066  0.77953494    -0.03200
C79         C  0.31540659  0.76125247  0.74492787     0.05400
C80         C  0.31894097  0.77896667  0.71044026     0.03500
H81         H  0.33606163  0.75548981  0.81234001     0.08600
H82         H  0.30849590  0.78202233  0.67811963     0.07400
N83         N  0.63307789  0.85563194  0.32788298    -0.27000
N84         N  0.61360094  0.86520240  0.30858465    -0.34800
C85         C  0.60687683  0.88423712  0.33513874     0.01300
C86         C  0.62279829  0.88657485  0.37306337     0.07400
C87         C  0.63910860  0.86815855  0.36755531    -0.05700
H88         H  0.59154842  0.89549277  0.32745852     0.08000
H89         H  0.65443401  0.86437268  0.39026766     0.09200
Cu90       Cu  0.59692911  0.85204464  0.24730017     0.44200
Cu91       Cu  0.65116468  0.82646032  0.29907084     0.42000
Cu92       Cu  0.62613468  0.80173619  0.18965352     0.43900
N93         N  0.58405331  0.83559353  0.18556421    -0.34400
N94         N  0.59494737  0.81750059  0.16387958    -0.28600
C95         C  0.58213887  0.81106970  0.12479158    -0.04700
C96         C  0.56216114  0.82569812  0.12214265     0.07500
C97         C  0.56395411  0.84106041  0.16112099     0.01300
H98         H  0.58684851  0.79664766  0.10044935     0.08900
H99         H  0.55160024  0.85519769  0.17091225     0.08000
N100        N  0.65603441  0.78771866  0.22423138    -0.35800
N101        N  0.66530831  0.79675786  0.26416508    -0.28000
C102        C  0.68416364  0.78329151  0.27770600    -0.03200
C103        C  0.68693308  0.76470922  0.24473745     0.05400
C104        C  0.66866697  0.76824099  0.21134036     0.03500
H105        H  0.69489050  0.78683260  0.30944041     0.08600
H106        H  0.66453018  0.75741372  0.18005601     0.07400
N107        N  0.40414210  0.81795784  0.16652100    -0.27000
N108        N  0.41538060  0.83577587  0.18862086    -0.34800
C109        C  0.43561747  0.84100041  0.16422067     0.01300
C110        C  0.43713562  0.82582080  0.12480942     0.07400
C111        C  0.41685791  0.81151641  0.12730844    -0.05700
H112        H  0.44815268  0.85500663  0.17407790     0.08000
H113        H  0.41177405  0.79740529  0.10249949     0.09200
Cu114      Cu  0.40247279  0.85270127  0.25027751     0.44200
Cu115      Cu  0.37228536  0.80267292  0.19103909     0.42000
Cu116      Cu  0.34728903  0.82883188  0.29917958     0.43900
N117        N  0.38520374  0.86694104  0.31033407    -0.34400
N118        N  0.36512602  0.85797271  0.32833860    -0.28600
C119        C  0.35856064  0.87091109  0.36710025    -0.04700
C120        C  0.37521392  0.88898572  0.37358448     0.07500
C121        C  0.39185597  0.88600740  0.33701504     0.01300
H122        H  0.34273934  0.86753621  0.38870068     0.08900
H123        H  0.40765005  0.89682883  0.33043894     0.08000
N124        N  0.33272565  0.79925690  0.26488970    -0.35800
N125        N  0.34170466  0.78958413  0.22531335    -0.28000
C126        C  0.32821278  0.77049806  0.21294560    -0.03200
C127        C  0.30976437  0.76800224  0.24640963     0.05400
C128        C  0.31334852  0.78667618  0.27876753     0.03500
H129        H  0.33168818  0.75936513  0.18177503     0.08600
H130        H  0.30285789  0.79087847  0.31046678     0.07400
N131        N  0.62547259  0.98421517  0.50328967    -0.36300
N132        N  0.62399222  0.94679755  0.57542206    -0.56900
N133        N  0.62451190  0.91079630  0.49894390    -0.36300
N134        N  0.62233339  0.94823976  0.42683968    -0.56900
C135        C  0.62064908  0.99722210  0.54340390     0.27300
C136        C  0.61968414  0.99798605  0.46481084     0.27300
C137        C  0.61914199  0.89709914  0.53770743     0.27300
C138        C  0.61873943  0.89789703  0.45924705     0.27300
C139        C  0.62848809  0.96570195  0.60459908     0.35900
C140        C  0.62802186  0.92694118  0.60208143     0.35900
C141        C  0.62686496  0.96796781  0.40006511     0.35900
C142        C  0.62662413  0.92922073  0.39787371     0.35900
C143        C  0.61179609  0.01951388  0.53021352    -0.21600
C144        C  0.61117065  0.01998966  0.48062301    -0.21600
C145        C  0.60990787  0.87523704  0.52249628    -0.21600
C146        C  0.60967939  0.87573818  0.47287762    -0.21600
C147        C  0.63539931  0.95784209  0.64997608    -0.22600
C148        C  0.63510933  0.93324310  0.64838317    -0.22600
C149        C  0.63403293  0.96145532  0.35394949    -0.22600
C150        C  0.63384726  0.93685902  0.35255157    -0.22600
C151        C  0.62498229  0.98988268  0.59148573    -0.18000
C152        C  0.62319984  0.99172762  0.41587836    -0.18000
C153        C  0.62278472  0.90512778  0.41116032    -0.18000
C154        C  0.62364202  0.90329133  0.58625348    -0.18000
H155        H  0.60629431  0.03396103  0.55382322     0.14900
H156        H  0.60516066  0.03489678  0.45872785     0.14900
H157        H  0.60408105  0.86038968  0.54481261     0.14900
H158        H  0.60364331  0.86138409  0.44950601     0.14900
H159        H  0.64000270  0.96866321  0.68107349     0.13200
H160        H  0.63940571  0.92137576  0.67807071     0.13200
H161        H  0.63887197  0.97317466  0.32434958     0.13200
H162        H  0.63845703  0.92587848  0.32170202     0.13200
H163        H  0.63467248  0.96805245  0.50205197     0.26500
H164        H  0.63413476  0.92675194  0.49949728     0.26500
N165        N  0.37409158  0.91377680  0.49987672    -0.36300
N166        N  0.37824119  0.95027484  0.57536519    -0.56900
N167        N  0.37619799  0.98748402  0.50170460    -0.36300
N168        N  0.37640918  0.95095686  0.42626050    -0.56900
C169        C  0.37857932  0.89984124  0.53883863     0.27300
C170        C  0.37833812  0.90026338  0.46015383     0.27300
C171        C  0.38204090  0.00072729  0.54099355     0.27300
C172        C  0.38090698  0.00107573  0.46230507     0.27300
C173        C  0.37364700  0.93081101  0.60307701     0.35900
C174        C  0.37511363  0.96967027  0.60408452     0.35900
C175        C  0.37217009  0.93176751  0.39764652     0.35900
C176        C  0.37255586  0.97058025  0.39869094     0.35900
C177        C  0.38552420  0.87716655  0.52367203    -0.21600
C178        C  0.38535081  0.87743201  0.47407532    -0.21600
C179        C  0.39050569  0.02297808  0.52634837    -0.21600
C180        C  0.38976711  0.02320666  0.47672562    -0.21600
C181        C  0.36777214  0.93788275  0.64957745    -0.22600
C182        C  0.36869004  0.96246642  0.65021007    -0.22600
C183        C  0.36572403  0.93921387  0.35171195    -0.22600
C184        C  0.36588812  0.96380856  0.35240642    -0.22600
C185        C  0.37565049  0.90669882  0.58767180    -0.18000
C186        C  0.37512537  0.90761897  0.41170790    -0.18000
C187        C  0.37641692  0.99447559  0.41381060    -0.18000
C188        C  0.37872448  0.99376003  0.58968814    -0.18000
H189        H  0.39032612  0.86196655  0.54595476     0.14900
H190        H  0.38991537  0.86247650  0.45093302     0.14900
H191        H  0.39654807  0.03759190  0.54904178     0.14900
H192        H  0.39513108  0.03802941  0.45388366     0.14900
H193        H  0.36311956  0.92654610  0.67989293     0.13200
H194        H  0.36483909  0.97370548  0.68108860     0.13200
H195        H  0.36133909  0.92810101  0.32089790     0.13200
H196        H  0.36169129  0.97535223  0.32215629     0.13200
H197        H  0.36622856  0.93059230  0.50049597     0.26500
H198        H  0.36701495  0.97131744  0.50189075     0.26500
N199        N  0.46488084  0.07634708  0.00181305    -0.36300
N200        N  0.50090442  0.07400203  0.07741886    -0.56900
N201        N  0.53860564  0.07633127  0.00395036    -0.36300
N202        N  0.50245191  0.07449957  0.92839161    -0.56900
C203        C  0.45100233  0.07102608  0.04047319     0.27300
C204        C  0.45181603  0.07136099  0.96190100     0.27300
C205        C  0.55171128  0.07141228  0.04385851     0.27300
C206        C  0.55254080  0.07135497  0.96516104     0.27300
C207        C  0.48124837  0.07772958  0.10505218     0.35900
C208        C  0.52009833  0.07784715  0.10625505     0.35900
C209        C  0.48326203  0.07833811  0.89955147     0.35900
C210        C  0.52212432  0.07789311  0.90061664     0.35900
C211        C  0.42888863  0.06261204  0.02490794    -0.21600
C212        C  0.42939426  0.06284251  0.97534986    -0.21600
C213        C  0.57428704  0.06343981  0.03026865    -0.21600
C214        C  0.57480808  0.06340269  0.98068260    -0.21600
C215        C  0.48799337  0.08385456  0.15162104    -0.22600
C216        C  0.51259944  0.08389427  0.15240219    -0.22600
C217        C  0.49076605  0.08410735  0.85326738    -0.22600
C218        C  0.51538092  0.08382004  0.85393449    -0.22600
C219        C  0.45732701  0.07455671  0.08937765    -0.18000
C220        C  0.45908692  0.07532840  0.91368183    -0.18000
C221        C  0.54604359  0.07448388  0.91615104    -0.18000
C222        C  0.54428077  0.07481646  0.09222224    -0.18000
H223        H  0.41390856  0.05685839  0.04692902     0.14900
H224        H  0.41486854  0.05731757  0.95189823     0.14900
H225        H  0.58889521  0.05808217  0.05362473     0.14900
H226        H  0.58988619  0.05800507  0.95862255     0.14900
H227        H  0.47643994  0.08791607  0.18192145     0.13200
H228        H  0.52368037  0.08795453  0.18343964     0.13200
H229        H  0.47968434  0.08798875  0.82215399     0.13200
H230        H  0.52695502  0.08752750  0.82345711     0.13200
H231        H  0.48122790  0.08538940  0.00254775     0.26500
H232        H  0.52204118  0.08490279  0.00337291     0.26500
N233        N  0.36963577  0.04488058  0.67048130    -0.27000
N234        N  0.38756921  0.03398912  0.69267480    -0.34800
C235        C  0.39370463  0.01427619  0.66749385     0.01300
C236        C  0.37896773  0.01275699  0.62736930     0.07400
C237        C  0.36398403  0.03248850  0.63034200    -0.05700
H238        H  0.40784360  0.00198060  0.67758145     0.08000
H239        H  0.34976244  0.03724535  0.60555579     0.09200
Cu240      Cu  0.40301682  0.04701121  0.75555605     0.44200
Cu241      Cu  0.35316760  0.07553880  0.69742315     0.42000
Cu242      Cu  0.37657055  0.10054877  0.80918214     0.43900
N243        N  0.41714146  0.06480213  0.81485743    -0.34400
N244        N  0.40749704  0.08413120  0.83460952    -0.28600
C245        C  0.42109601  0.09105016  0.87225701    -0.04700
C246        C  0.44026943  0.07545369  0.87597137     0.07500
C247        C  0.43719540  0.05901404  0.83918618     0.01300
H248        H  0.41728475  0.10624228  0.89530886     0.08900
H249        H  0.44850518  0.04377880  0.83111806     0.08000
N250        N  0.34660989  0.11385974  0.77367733    -0.35800
N251        N  0.33822695  0.10480527  0.73291497    -0.28000
C252        C  0.31884651  0.11741958  0.71921989    -0.03200
C253        C  0.31474264  0.13539857  0.75287717     0.05400
C254        C  0.33280208  0.13251788  0.78691275     0.03500
H255        H  0.30869626  0.11380711  0.68674870     0.08600
H256        H  0.33569829  0.14303933  0.81919770     0.07400
N257        N  0.59744334  0.08128184  0.83510818    -0.27000
N258        N  0.58669246  0.06249148  0.81537625    -0.34800
C259        C  0.56693090  0.05715040  0.84115508     0.01300
C260        C  0.56523650  0.07322100  0.87903716     0.07400
C261        C  0.58492013  0.08818543  0.87427520    -0.05700
H262        H  0.55462092  0.04270906  0.83281086     0.08000
H263        H  0.58943972  0.10336593  0.89686753     0.09200
Cu264      Cu  0.59895755  0.04478980  0.75407789     0.44200
Cu265      Cu  0.62726312  0.09836440  0.80557600     0.42000
Cu266      Cu  0.64792174  0.07374230  0.69279545     0.43900
N267        N  0.61540452  0.03062837  0.69305113    -0.34400
N268        N  0.63322456  0.04156399  0.67046807    -0.28600
C269        C  0.63960313  0.02860103  0.63165953    -0.04700
C270        C  0.62519830  0.00844056  0.62980823     0.07500
C271        C  0.61005541  0.01023638  0.66927952     0.01300
H272        H  0.65351009  0.03362062  0.60633048     0.08900
H273        H  0.59585817  0.99794403  0.67926533     0.08000
N274        N  0.66085870  0.10540276  0.72161207    -0.35800
N275        N  0.65355204  0.11448435  0.76312115    -0.28000
C276        C  0.66558870  0.13502778  0.77147717    -0.03200
C277        C  0.68133850  0.13900824  0.73341897     0.05400
C278        C  0.67775024  0.11977236  0.70254241     0.03500
H279        H  0.66334246  0.14595068  0.80342501     0.08600
H280        H  0.68673387  0.11633141  0.66864189     0.07400
N281        N  0.59518130  0.08279543  0.17357149    -0.27000
N282        N  0.58488572  0.06371412  0.19304691    -0.34800
C283        C  0.56507858  0.05814255  0.16767284     0.01300
C284        C  0.56290738  0.07443485  0.13033955     0.07400
C285        C  0.58229868  0.08975695  0.13498665    -0.05700
H286        H  0.55328467  0.04320732  0.17550552     0.08000
H287        H  0.58665813  0.10488598  0.11212326     0.09200
Cu288      Cu  0.59814898  0.04601496  0.25302194     0.44200
Cu289      Cu  0.62579509  0.09900921  0.20116918     0.42000
Cu290      Cu  0.64805105  0.07471798  0.31350129     0.43900
N291        N  0.61384160  0.03285617  0.31529333    -0.34400
N292        N  0.63163927  0.04373865  0.33807792    -0.28600
C293        C  0.63747503  0.03098219  0.37751946    -0.04700
C294        C  0.62275147  0.01106041  0.37935901     0.07500
C295        C  0.60798389  0.01275601  0.33941515     0.01300
H296        H  0.65164756  0.03563915  0.40253012     0.08900
H297        H  0.59403412  0.00032704  0.32871511     0.08000
N298        N  0.66302160  0.10418887  0.27941724    -0.35800
N299        N  0.65497497  0.11304938  0.23825675    -0.28000
C300        C  0.66862767  0.13195066  0.22566042    -0.03200
C301        C  0.68624548  0.13512922  0.26049912     0.05400
C302        C  0.68206138  0.11711793  0.29402147     0.03500
H303        H  0.66602595  0.14236172  0.19313464     0.08600
H304        H  0.69196264  0.11366871  0.32687330     0.07400
N305        N  0.36722366  0.04541551  0.33320766    -0.27000
N306        N  0.38596455  0.03520462  0.31248054    -0.34800
C307        C  0.39216765  0.01562817  0.33790365     0.01300
C308        C  0.37664366  0.01355057  0.37660190     0.07400
C309        C  0.36107865  0.03273214  0.37265413    -0.05700
H310        H  0.40686047  0.00378604  0.32890471     0.08000
H311        H  0.34619352  0.03693402  0.39623633     0.09200
Cu312      Cu  0.40219160  0.04852035  0.25074924     0.44200
Cu313      Cu  0.35056946  0.07552395  0.30533288     0.42000
Cu314      Cu  0.37355505  0.09885872  0.19131164     0.43900
N315        N  0.41547961  0.06477723  0.18900481    -0.34400
N316        N  0.40478370  0.08276803  0.16655796    -0.28600
C317        C  0.41789615  0.08893991  0.12769019    -0.04700
C318        C  0.43788544  0.07427081  0.12596667     0.07500
C319        C  0.43575941  0.05915458  0.16530571     0.01300
H320        H  0.41339499  0.10323348  0.10287452     0.08900
H321        H  0.44801007  0.04505740  0.17583554     0.08000
N322        N  0.34402849  0.11278833  0.22727981    -0.35800
N323        N  0.33591818  0.10436054  0.26879399    -0.28000
C324        C  0.31668166  0.11715419  0.28236610    -0.03200
C325        C  0.31232635  0.13456952  0.24775331     0.05400
C326        C  0.33014093  0.13124658  0.21338130     0.03500
H327        H  0.30672321  0.11390761  0.31522562     0.08600
H328        H  0.33275031  0.14122383  0.18030910     0.07400
N329        N  0.96207916  0.57328588  0.50300970    -0.36300
N330        N  0.99979263  0.57179140  0.57561689    -0.56900
N331        N  0.03549204  0.57389937  0.49951107    -0.36300
N332        N  0.99778242  0.57170948  0.42684142    -0.56900
C333        C  0.94920235  0.56815645  0.54313552     0.27300
C334        C  0.94814717  0.56776317  0.46452122     0.27300
C335        C  0.04939302  0.56829443  0.53792693     0.27300
C336        C  0.04834100  0.56875992  0.45943846     0.27300
C337        C  0.98076882  0.57617429  0.60448681     0.35900
C338        C  0.01955941  0.57600806  0.60256785     0.35900
C339        C  0.97799622  0.57555618  0.39975524     0.35900
C340        C  0.01678142  0.57637962  0.39804490     0.35900
C341        C  0.92685593  0.55934025  0.52999985    -0.21600
C342        C  0.92619651  0.55907725  0.48038509    -0.21600
C343        C  0.07128892  0.55952536  0.52205641    -0.21600
C344        C  0.07064462  0.55987704  0.47246624    -0.21600
C345        C  0.98847229  0.58320096  0.64993929    -0.22600
C346        C  0.01308221  0.58308277  0.64872711    -0.22600
C347        C  0.98445853  0.58259904  0.35353238    -0.22600
C348        C  0.00906686  0.58313000  0.35245783    -0.22600
C349        C  0.95661514  0.57244685  0.59118325    -0.18000
C350        C  0.95424800  0.57159468  0.41558650    -0.18000
C351        C  0.04094975  0.57313408  0.41153450    -0.18000
C352        C  0.04330228  0.57213813  0.58679227    -0.18000
H353        H  0.91245678  0.55373805  0.55368687     0.14900
H354        H  0.91119062  0.55324576  0.45851247     0.14900
H355        H  0.08624273  0.55358074  0.54389971     0.14900
H356        H  0.08499573  0.55426824  0.44870625     0.14900
H357        H  0.97753106  0.58780855  0.68084294     0.13200
H358        H  0.02483023  0.58761342  0.67848162     0.13200
H359        H  0.97270443  0.58689853  0.32367152     0.13200
H360        H  0.02000861  0.58782202  0.32157678     0.13200
H361        H  0.97816981  0.58253725  0.50203463     0.26500
H362        H  0.01945029  0.58322883  0.50047978     0.26500
N363        N  0.96521911  0.32612534  0.50362910    -0.36300
N364        N  0.00149235  0.32785663  0.42771823    -0.56900
N365        N  0.03874208  0.32534636  0.50074180    -0.36300
N366        N  0.00226087  0.32773004  0.57669614    -0.56900
C367        C  0.95169593  0.33194661  0.46484555     0.27300
C368        C  0.95207703  0.33124069  0.54338708     0.27300
C369        C  0.05204992  0.33004488  0.46096606     0.27300
C370        C  0.05245710  0.33065216  0.53959334     0.27300
C371        C  0.98174617  0.32416852  0.40038389     0.35900
C372        C  0.02054070  0.32341344  0.39889459     0.35900
C373        C  0.98311995  0.32320540  0.60534782     0.35900
C374        C  0.02195447  0.32353750  0.60383725     0.35900
C375        C  0.92979396  0.34096214  0.48012220    -0.21600
C376        C  0.93002931  0.34049943  0.52969918    -0.21600
C377        C  0.07454254  0.33822989  0.47468301    -0.21600
C378        C  0.07478196  0.33867813  0.52430730    -0.21600
C379        C  0.98828444  0.31748711  0.35400276    -0.22600
C380        C  0.01287457  0.31702764  0.35305160    -0.22600
C381        C  0.99067848  0.31616878  0.65083330    -0.22600
C382        C  0.01529128  0.31642418  0.64991550    -0.22600
C383        C  0.95795161  0.32789389  0.41611871    -0.18000
C384        C  0.95897011  0.32656751  0.59155364    -0.18000
C385        C  0.04583456  0.32722811  0.58839835    -0.18000
C386        C  0.04474248  0.32630244  0.41269464    -0.18000
H387        H  0.91508184  0.34712540  0.45786221     0.14900
H388        H  0.91556395  0.34629301  0.55298208     0.14900
H389        H  0.08924650  0.34343054  0.45138112     0.14900
H390        H  0.08974746  0.34424575  0.54656561     0.14900
H391        H  0.97660329  0.31334463  0.32392519     0.13200
H392        H  0.02382318  0.31249406  0.32211285     0.13200
H393        H  0.97965539  0.31137284  0.68151924     0.13200
H394        H  0.02692884  0.31181719  0.67977627     0.13200
H395        H  0.98119710  0.31651563  0.50289573     0.26500
H396        H  0.02225470  0.31660636  0.50142603     0.26500
N397        N  0.12650600  0.41382786  0.00112873    -0.36300
N398        N  0.12369745  0.45061156  0.07578902    -0.56900
N399        N  0.12558920  0.48749525  0.00159350    -0.36300
N400        N  0.12395767  0.45056875  0.92695740    -0.56900
C401        C  0.12162927  0.40018705  0.04028536     0.27300
C402        C  0.12207872  0.40017185  0.96175095     0.27300
C403        C  0.12052199  0.50095373  0.04092463     0.27300
C404        C  0.12023863  0.50089420  0.96233133     0.27300
C405        C  0.12739416  0.43119093  0.10403177     0.35900
C406        C  0.12719400  0.46999994  0.10425975     0.35900
C407        C  0.12826714  0.43130439  0.89863797     0.35900
C408        C  0.12738245  0.47008722  0.89885421     0.35900
C409        C  0.11415293  0.37758338  0.02560959    -0.21600
C410        C  0.11444061  0.37757421  0.97606710    -0.21600
C411        C  0.11204996  0.52320798  0.02646514    -0.21600
C412        C  0.11186686  0.52316749  0.97687971    -0.21600
C413        C  0.13304042  0.43826918  0.15064913    -0.22600
C414        C  0.13294952  0.46285020  0.15077945    -0.22600
C415        C  0.13431700  0.43861424  0.85237909    -0.22600
C416        C  0.13375518  0.46318736  0.85250910    -0.22600
C417        C  0.12479560  0.40714564  0.08890193    -0.18000
C418        C  0.12565899  0.40719345  0.91329443    -0.18000
C419        C  0.12368743  0.49400927  0.91373899    -0.18000
C420        C  0.12409288  0.49404155  0.08948525    -0.18000
H421        H  0.10897830  0.36260462  0.04820886     0.14900
H422        H  0.10951026  0.36260002  0.95324519     0.14900
H423        H  0.10643670  0.53794274  0.04923534     0.14900
H424        H  0.10614943  0.53788233  0.95414806     0.14900
H425        H  0.13692209  0.42694217  0.18139677     0.13200
H426        H  0.13673863  0.47412254  0.18166375     0.13200
H427        H  0.13871540  0.42744427  0.82168908     0.13200
H428        H  0.13765627  0.47462818  0.82192570     0.13200
H429        H  0.13488515  0.43049622  0.00134857     0.26500
H430        H  0.13458143  0.47117183  0.00151036     0.26500
N431        N  0.13243967  0.54429726  0.83165328    -0.27000
N432        N  0.11372108  0.53378393  0.81129746    -0.34800
C433        C  0.10749824  0.51448227  0.83756174     0.01300
C434        C  0.12301606  0.51290735  0.87632967     0.07400
C435        C  0.13854577  0.53209174  0.87164552    -0.05700
H436        H  0.09293983  0.50237541  0.82884145     0.08000
H437        H  0.15351595  0.53650420  0.89489194     0.09200
Cu438      Cu  0.09773121  0.54592104  0.74853795     0.44200
Cu439      Cu  0.14968365  0.57381265  0.80267076     0.42000
Cu440      Cu  0.12687915  0.59606413  0.68894474     0.43900
N441        N  0.08486996  0.56189587  0.68633685    -0.34400
N442        N  0.09570223  0.57990855  0.66411812    -0.28600
C443        C  0.08273137  0.58617910  0.62519432    -0.04700
C444        C  0.06272874  0.57153182  0.62317605     0.07500
C445        C  0.06463426  0.55633213  0.66238601     0.01300
H446        H  0.08730236  0.60057950  0.60065294     0.08900
H447        H  0.05222058  0.54231256  0.67278084     0.08000
N448        N  0.15653804  0.61040377  0.72378242    -0.35800
N449        N  0.16463028  0.60231516  0.76553691    -0.28000
C450        C  0.18340747  0.61573387  0.77946758    -0.03200
C451        C  0.18740790  0.63328257  0.74489628     0.05400
C452        C  0.17000527  0.62924331  0.70997617     0.03500
H453        H  0.19331756  0.61281158  0.81250419     0.08600
H454        H  0.16690855  0.63951977  0.67745408     0.07400
N455        N  0.09685199  0.31858844  0.66882894    -0.27000
N456        N  0.08628910  0.33703990  0.68989662    -0.34800
C457        C  0.06667944  0.34311349  0.66447338     0.01300
C458        C  0.06495957  0.32780514  0.62539451     0.07400
C459        C  0.08438496  0.31254431  0.62909027    -0.05700
H460        H  0.05452779  0.35749411  0.67385337     0.08000
H461        H  0.08880634  0.29780727  0.60530345     0.09200
Cu462      Cu  0.09908030  0.35298277  0.75204218     0.44200
Cu463      Cu  0.12679590  0.30157967  0.69680314     0.42000
Cu464      Cu  0.15093292  0.32473633  0.80854989     0.43900
N465        N  0.11601051  0.36610455  0.81284872    -0.34400
N466        N  0.13460943  0.35574564  0.83391711    -0.28600
C467        C  0.14098424  0.36877705  0.87272821    -0.04700
C468        C  0.12577035  0.38828507  0.87581986     0.07500
C469        C  0.11016028  0.38603870  0.83739657     0.01300
H470        H  0.15563199  0.36443263  0.89680738     0.08900
H471        H  0.09550103  0.39789157  0.82820271     0.08000
N472        N  0.16459971  0.29480489  0.77341442    -0.35800
N473        N  0.15565716  0.28638990  0.73260936    -0.33600
C474        C  0.16838684  0.26711785  0.71883341    -0.03200
C475        C  0.18640543  0.26314887  0.75244135     0.05400
C476        C  0.18337950  0.28114435  0.78658422     0.03500
H477        H  0.16489984  0.25703413  0.68622479     0.08600
H478        H  0.19392027  0.28412394  0.81881568     0.07400
N479        N  0.09431773  0.31610474  0.32930269    -0.27000
N480        N  0.08440128  0.33522562  0.30946955    -0.34800
C481        C  0.06534294  0.34186847  0.33600104     0.01300
C482        C  0.06331948  0.32620560  0.37450235     0.07400
C483        C  0.08199323  0.31012992  0.36928417    -0.05700
H484        H  0.05385807  0.35697769  0.32796029     0.08000
H485        H  0.08610761  0.29504498  0.39241438     0.09200
Cu486      Cu  0.09778314  0.35136513  0.24784976     0.44200
Cu487      Cu  0.12372095  0.29900668  0.29981133     0.42000
Cu488      Cu  0.15024540  0.32433913  0.19116847     0.43900
N489        N  0.11499048  0.36525015  0.18787344    -0.34400
N490        N  0.13394536  0.35541948  0.16708317    -0.28600
C491        C  0.14046006  0.36887324  0.12900047    -0.04700
C492        C  0.12492199  0.38809458  0.12599221     0.07500
C493        C  0.10899664  0.38526753  0.16373116     0.01300
H494        H  0.15534877  0.36494280  0.10523355     0.08900
H495        H  0.09402153  0.39675956  0.17269010     0.08000
N496        N  0.16271586  0.29372411  0.22500280    -0.35800
N497        N  0.15298759  0.28463660  0.26446263    -0.28000
C498        C  0.16529577  0.26504948  0.27769927    -0.03200
C499        C  0.18379728  0.26151116  0.24504204     0.05400
C500        C  0.18153479  0.28013017  0.21205324     0.03500
H501        H  0.16108686  0.25444872  0.30926865     0.08600
H502        H  0.19263082  0.28368409  0.18084236     0.07400
N503        N  0.13164082  0.54556399  0.16938285    -0.27000
N504        N  0.11332538  0.53462218  0.19033783    -0.34800
C505        C  0.10794399  0.51462288  0.16550258     0.01300
C506        C  0.12358109  0.51294817  0.12698957     0.07400
C507        C  0.13831390  0.53286136  0.13036325    -0.05700
H508        H  0.09357546  0.50234442  0.17453469     0.08000
H509        H  0.15283821  0.53770465  0.10633661     0.09200
Cu510      Cu  0.09597986  0.54748206  0.25081128     0.44200
Cu511      Cu  0.14691977  0.57708713  0.19497110     0.42000
Cu512      Cu  0.12058118  0.60200255  0.30256378     0.43900
N513        N  0.08176774  0.56440382  0.31053709    -0.34400
N514        N  0.09104745  0.58397771  0.33008063    -0.28600
C515        C  0.07797838  0.59006953  0.36895127    -0.04700
C516        C  0.05950912  0.57369087  0.37356008     0.07500
C517        C  0.06239384  0.55765517  0.33606379     0.01300
H518        H  0.08154886  0.60535913  0.39192418     0.08900
H519        H  0.05140877  0.54211702  0.32822602     0.08000
N520        N  0.14975949  0.61719645  0.26759305    -0.35800
N521        N  0.15944900  0.60805538  0.22819331    -0.28000
C522        C  0.17808686  0.62185336  0.21468191    -0.03200
C523        C  0.18031465  0.64074633  0.24712588     0.05400
C524        C  0.16192195  0.63708310  0.28018632     0.03500
H525        H  0.18911268  0.61823845  0.18342581     0.08600
H526        H  0.15769537  0.64784422  0.31150717     0.07400
N527        N  0.87215404  0.41075214  0.00267199    -0.36300
N528        N  0.87555209  0.44824651  0.07620419    -0.56900
N529        N  0.87234271  0.48454213  0.00094649    -0.36300
N530        N  0.87284927  0.44716441  0.92734899    -0.56900
C531        C  0.87780410  0.39754417  0.04209270     0.27300
C532        C  0.87666352  0.39701370  0.96335496     0.27300
C533        C  0.87822983  0.49823943  0.03956162     0.27300
C534        C  0.87730139  0.49759540  0.96093853     0.27300
C535        C  0.87201158  0.42896744  0.10503862     0.35900
C536        C  0.87198148  0.46785748  0.10410144     0.35900
C537        C  0.86870593  0.42758498  0.89976904     0.35900
C538        C  0.86888487  0.46643760  0.89882350     0.35900
C539        C  0.88579002  0.37510869  0.02767155    -0.21600
C540        C  0.88508249  0.37477820  0.97802765    -0.21600
C541        C  0.88693983  0.52021488  0.02389591    -0.21600
C542        C  0.88637081  0.51980575  0.97433466    -0.21600
C543        C  0.86630504  0.43637395  0.15140974    -0.22600
C544        C  0.86622661  0.46098119  0.15078866    -0.22600
C545        C  0.86202840  0.43445613  0.85356969    -0.22600
C546        C  0.86213690  0.45908641  0.85297702    -0.22600
C547        C  0.87497660  0.40478985  0.09074826    -0.18000
C548        C  0.87258154  0.40366046  0.91469435    -0.18000
C549        C  0.87287737  0.49049075  0.91272402    -0.18000
C550        C  0.87503187  0.49184979  0.08856238    -0.18000
H551        H  0.89158920  0.36047579  0.05053387     0.14900
H552        H  0.89021851  0.35983628  0.95534158     0.14900
H553        H  0.89318433  0.53501696  0.04585730     0.14900
H554        H  0.89205928  0.53425877  0.95086428     0.14900
H555        H  0.86251283  0.42523626  0.18249937     0.13200
H556        H  0.86232186  0.47243836  0.18130958     0.13200
H557        H  0.85777090  0.42293622  0.82329252     0.13200
H558        H  0.85798315  0.47027949  0.82216671     0.13200
H559        H  0.86342229  0.42718265  0.00283337     0.26500
H560        H  0.86307208  0.46837100  0.00194061     0.26500
N561        N  0.90617931  0.31727190  0.66767359    -0.27000
N562        N  0.91718541  0.33444023  0.69215702    -0.34800
C563        C  0.93789546  0.33998841  0.66971990     0.01300
C564        C  0.93993503  0.32572135  0.62905034     0.07400
C565        C  0.91948780  0.31160335  0.62880729    -0.05700
H566        H  0.95024961  0.35379869  0.68143815     0.08000
H567        H  0.91456444  0.29832297  0.60208158     0.09200
Cu568      Cu  0.90293570  0.35036733  0.75360601     0.44200
Cu569      Cu  0.87360864  0.30213466  0.68814442     0.42000
Cu570      Cu  0.84757835  0.32445418  0.79901017     0.43900
N571        N  0.88468022  0.36334877  0.81357282    -0.34400
N572        N  0.86485047  0.35352664  0.83094686    -0.28600
C573        C  0.85769432  0.36604603  0.86995140    -0.04700
C574        C  0.87364779  0.38474380  0.87706457     0.07500
C575        C  0.89049177  0.38253073  0.84068522     0.01300
H576        H  0.84178417  0.36215328  0.89092244     0.08900
H577        H  0.90579679  0.39406588  0.83432598     0.08000
N578        N  0.83266054  0.29671715  0.75860719    -0.35800
N579        N  0.84217096  0.28859125  0.71808774    -0.28000
C580        C  0.82854965  0.27048365  0.70124238    -0.03200
C581        C  0.80940018  0.26699870  0.73254157     0.05400
C582        C  0.81266222  0.28406583  0.76847165     0.03500
H583        H  0.83238257  0.26064746  0.66849417     0.08600
H584        H  0.80161100  0.28686282  0.80005899     0.07400
N585        N  0.86616828  0.54271520  0.83447902    -0.27000
N586        N  0.88481171  0.53220705  0.81389372    -0.34800
C587        C  0.88965542  0.51168685  0.83756886     0.01300
C588        C  0.87333053  0.50928170  0.87486719     0.07400
C589        C  0.85879305  0.52929463  0.87200851    -0.05700
H590        H  0.90427445  0.49968524  0.82894462     0.08000
H591        H  0.84404412  0.53383835  0.89567801     0.09200
Cu592      Cu  0.90302917  0.54642322  0.75503010     0.44200
Cu593      Cu  0.85107560  0.57447893  0.81021061     0.42000
Cu594      Cu  0.87553592  0.59797005  0.69890033     0.43900
N595        N  0.91661859  0.56314052  0.69384548    -0.34400
N596        N  0.90608321  0.58157094  0.67258890    -0.28600
C597        C  0.91864790  0.58770836  0.63303977    -0.04700
C598        C  0.93811921  0.57252498  0.62950065     0.07500
C599        C  0.93634191  0.55717938  0.66858084     0.01300
H600        H  0.91402300  0.60220693  0.60880452     0.08900
H601        H  0.94829305  0.54257123  0.67756446     0.08000
N602        N  0.84659207  0.61291033  0.73449022    -0.35800
N603        N  0.83775062  0.60458342  0.77543090    -0.28000
C604        C  0.81936988  0.61859046  0.78924886    -0.03200
C605        C  0.81648876  0.63674498  0.75536222     0.05400
C606        C  0.83415045  0.63241855  0.72115033     0.03500
H607        H  0.80906702  0.61571746  0.82181010     0.08600
H608        H  0.83786307  0.64258927  0.68876870     0.07400
N609        N  0.86738807  0.54444381  0.16620325    -0.27000
N610        N  0.88481852  0.53321958  0.18930733    -0.34800
C611        C  0.89027548  0.51292846  0.16544562     0.01300
C612        C  0.87556552  0.51129068  0.12532171     0.07400
C613        C  0.86135604  0.53164869  0.12678827    -0.05700
H614        H  0.90389714  0.50026801  0.17653262     0.08000
H615        H  0.84740196  0.53656249  0.10150889     0.09200
Cu616      Cu  0.90004876  0.54603036  0.25259746     0.44200
Cu617      Cu  0.85199272  0.57589200  0.19175880     0.42000
Cu618      Cu  0.87213863  0.59718177  0.31026293     0.43900
N619        N  0.91282273  0.56182083  0.31537331    -0.34400
N620        N  0.90231626  0.58010970  0.33718753    -0.28600
C621        C  0.91517820  0.58615005  0.37646887    -0.04700
C622        C  0.93479037  0.57105715  0.37916304     0.07500
C623        C  0.93275568  0.55586407  0.33993216     0.01300
H624        H  0.91091715  0.60080761  0.40057707     0.08900
H625        H  0.94495424  0.54165376  0.32979436     0.08000
N626        N  0.84464593  0.61277275  0.27085836    -0.35800
N627        N  0.83772946  0.60530041  0.22775293    -0.28000
C628        C  0.81972187  0.61928763  0.21219341    -0.03200
C629        C  0.81489223  0.63648449  0.24713878     0.05400
C630        C  0.83119497  0.63172468  0.28381587     0.03500
H631        H  0.81076846  0.61679717  0.17794641     0.08600
H632        H  0.83312549  0.64109496  0.31776751     0.07400
N633        N  0.90518712  0.31876561  0.34044842    -0.27000
N634        N  0.91583498  0.33647694  0.31689006    -0.34800
C635        C  0.93623219  0.34239629  0.33990214     0.01300
C636        C  0.93846076  0.32776023  0.37986947     0.07400
C637        C  0.91846906  0.31305995  0.37929683    -0.05700
H638        H  0.94846479  0.35638040  0.32850208     0.08000
H639        H  0.91404757  0.29909063  0.40493928     0.09200
Cu640      Cu  0.90246782  0.35215966  0.25475843     0.44200
Cu641      Cu  0.87371275  0.30234461  0.31791720     0.42000
Cu642      Cu  0.84913720  0.32545854  0.20578035     0.43900
N643        N  0.88562778  0.36495457  0.19334929    -0.34400
N644        N  0.86618736  0.35494031  0.17479710    -0.28600
C645        C  0.85963361  0.36728766  0.13516116    -0.04700
C646        C  0.87562362  0.38604829  0.12881622     0.07500
C647        C  0.89186475  0.38404123  0.16635024     0.01300
H648        H  0.84413940  0.36319941  0.11310471     0.08900
H649        H  0.90701721  0.39565021  0.17359564     0.08000
N650        N  0.83490825  0.29629139  0.24308492    -0.35800
N651        N  0.84388560  0.28786028  0.28386197    -0.28000
C652        C  0.83108743  0.26856552  0.29766774    -0.03200
C653        C  0.81306486  0.26459391  0.26403158     0.05400
C654        C  0.81606823  0.28263850  0.23002200     0.03500
H655        H  0.83474740  0.25821723  0.32986399     0.08600
H656        H  0.80571558  0.28538894  0.19746964     0.07400
C657        C  0.20209859  0.24222236  0.24583566    -0.01000
C658        C  0.20007306  0.22302254  0.27829492    -0.09000
C659        C  0.21727617  0.20490083  0.27956031    -0.17800
C660        C  0.23726257  0.20533160  0.24816208     0.04500
C661        C  0.23923300  0.22479662  0.21523247     0.18700
C662        C  0.22178702  0.24290278  0.21436342    -0.19300
C663        C  0.25867463  0.22618052  0.18340958    -0.20500
C664        C  0.27636297  0.20867330  0.18371348    -0.19100
C665        C  0.27503427  0.18933827  0.21581784     0.20100
C666        C  0.25542452  0.18728831  0.24838896     0.02200
C667        C  0.25495351  0.16732040  0.27984391    -0.13800
C668        C  0.27331176  0.15035239  0.27935072    -0.11500
C669        C  0.29274871  0.15256733  0.24753760     0.01800
C670        C  0.29335719  0.17209827  0.21566453    -0.23700
H671        H  0.18507187  0.22176733  0.30291810     0.09800
H672        H  0.21438070  0.19084806  0.30561477     0.13300
H673        H  0.22379744  0.25764485  0.18923958     0.12100
H674        H  0.26026476  0.24096739  0.15818398     0.13300
H675        H  0.29124280  0.21031474  0.15872921     0.12300
H676        H  0.24068136  0.16425106  0.30532673     0.09400
H677        H  0.27206142  0.13534014  0.30397294     0.12600
H678        H  0.30827810  0.17417944  0.19097372     0.14500
C679        C  0.79498209  0.24497395  0.26382033    -0.01000
C680        C  0.79858382  0.22420992  0.29140872    -0.09000
C681        C  0.78167465  0.20568528  0.29156758    -0.17800
C682        C  0.76033684  0.20733897  0.26412922     0.04500
C683        C  0.75686243  0.22832544  0.23578459     0.18700
C684        C  0.77406546  0.24680059  0.23589523    -0.19300
C685        C  0.73619418  0.23081386  0.20753614    -0.20500
C686        C  0.71882333  0.21290550  0.20680458    -0.19100
C687        C  0.72157315  0.19212240  0.23459377     0.20100
C688        C  0.74231566  0.18902350  0.26381945     0.02200
C689        C  0.74394952  0.16782942  0.29173028    -0.13800
C690        C  0.72578391  0.15054423  0.29062139    -0.11500
C691        C  0.70544349  0.15361449  0.26153714     0.01800
C692        C  0.70354314  0.17448286  0.23352482    -0.23700
H693        H  0.81470705  0.22205253  0.31273006     0.09800
H694        H  0.78589929  0.19029044  0.31346449     0.13300
H695        H  0.77093783  0.26277859  0.21454426     0.12100
H696        H  0.73343781  0.24674329  0.18579642     0.13300
H697        H  0.70304083  0.21539805  0.18450277     0.12300
H698        H  0.75896922  0.16409217  0.31500255     0.09400
H699        H  0.72789349  0.13456246  0.31238923     0.12600
H700        H  0.68780204  0.17727624  0.21129201     0.14500
C701        C  0.69918869  0.15865065  0.72826275    -0.01000
C702        C  0.71905586  0.15592411  0.69773382    -0.09000
C703        C  0.73683082  0.17356349  0.69512858    -0.17800
C704        C  0.73534762  0.19471476  0.72316763     0.04500
C705        C  0.71467414  0.19784756  0.75258598     0.18700
C706        C  0.69692294  0.17992775  0.75486334    -0.19300
C707        C  0.71202874  0.21866398  0.78030269    -0.20500
C708        C  0.72980968  0.23618428  0.78057785    -0.19100
C709        C  0.75072899  0.23332791  0.75321837     0.20100
C710        C  0.75372927  0.21267834  0.72369982     0.02200
C711        C  0.77519883  0.21075654  0.69675380    -0.13800
C712        C  0.79296549  0.22841799  0.69945922    -0.11500
C713        C  0.79009622  0.24860720  0.72906202     0.01800
C714        C  0.76878833  0.25094872  0.75564012    -0.23700
H715        H  0.72133170  0.13976379  0.67659473     0.09800
H716        H  0.75164438  0.16993323  0.67126596     0.13300
H717        H  0.68140814  0.18252007  0.77783819     0.12100
H718        H  0.69622041  0.22127931  0.80246400     0.13300
H719        H  0.72731546  0.25195481  0.80289686     0.12300
H720        H  0.77896330  0.19570214  0.67360194     0.09400
H721        H  0.80923378  0.22593605  0.67875312     0.12600
H722        H  0.76613784  0.26656088  0.77829580     0.14500
C723        C  0.29538361  0.15373142  0.75222464    -0.01000
C724        C  0.27544018  0.15096598  0.72187022    -0.09000
C725        C  0.25725903  0.16816916  0.72060514    -0.17800
C726        C  0.25839474  0.18895934  0.74978808     0.04500
C727        C  0.27862636  0.19170461  0.78058839     0.18700
C728        C  0.29674895  0.17419132  0.78162133    -0.19300
C729        C  0.28073225  0.21197368  0.81011748    -0.20500
C730        C  0.26314297  0.22961977  0.80984125    -0.19100
C731        C  0.24295347  0.22744111  0.78010921     0.20100
C732        C  0.24026085  0.20710929  0.74956777     0.02200
C733        C  0.21952571  0.20588199  0.72022809    -0.13800
C734        C  0.20225823  0.22400244  0.72131122    -0.11500
C735        C  0.20492679  0.24398926  0.75157621     0.01800
C736        C  0.22541588  0.24553812  0.78084320    -0.23700
H737        H  0.27365352  0.13530709  0.69907227     0.09800
H738        H  0.24256737  0.16462983  0.69635428     0.13300
H739        H  0.31210528  0.17675779  0.80502850     0.12100
H740        H  0.29611873  0.21420880  0.83363511     0.13300
H741        H  0.26533511  0.24508253  0.83316388     0.12300
H742        H  0.21604293  0.19112765  0.69610594     0.09400
H743        H  0.18659806  0.22210287  0.69854242     0.12600
H744        H  0.22792733  0.26096322  0.80408444     0.14500
C745        C  0.29036791  0.74959131  0.24750801    -0.01000
C746        C  0.27162286  0.75122066  0.28116405    -0.09000
C747        C  0.25318936  0.73423504  0.28220167    -0.17800
C748        C  0.25277651  0.71482989  0.24936414     0.04500
C749        C  0.27184417  0.71312246  0.21544066     0.18700
C750        C  0.29031234  0.73033650  0.21485229    -0.19300
C751        C  0.27239706  0.69422959  0.18219099    -0.20500
C752        C  0.25445343  0.67689159  0.18196785    -0.19100
C753        C  0.23548013  0.67798074  0.21499391     0.20100
C754        C  0.23425745  0.69701408  0.24904287     0.02200
C755        C  0.21458673  0.69728523  0.28129145    -0.13800
C756        C  0.19717591  0.67923375  0.28026023    -0.11500
C757        C  0.19861007  0.66026216  0.24711432     0.01800
C758        C  0.21780836  0.65996749  0.21430106    -0.23700
H759        H  0.27092737  0.76578648  0.30688802     0.09800
H760        H  0.23952291  0.73684931  0.30917748     0.13300
H761        H  0.30467034  0.72858184  0.18878378     0.12100
H762        H  0.28685601  0.69281412  0.15618348     0.13300
H763        H  0.25547527  0.66246048  0.15582520     0.12300
H764        H  0.21212847  0.71116189  0.30788695     0.09400
H765        H  0.18253661  0.68028823  0.30578116     0.12600
H766        H  0.21931794  0.64554687  0.18832705     0.14500
C767        C  0.70525275  0.74527194  0.24492357    -0.01000
C768        C  0.70632990  0.72876857  0.20678133    -0.09000
C769        C  0.72360254  0.71070417  0.20591626    -0.17800
C770        C  0.74066965  0.70843962  0.24336854     0.04500
C771        C  0.73946749  0.72500259  0.28230487     0.18700
C772        C  0.72188139  0.74309047  0.28281193    -0.19300
C773        C  0.75594287  0.72352886  0.32036356    -0.20500
C774        C  0.77375504  0.70607442  0.32037656    -0.19100
C775        C  0.77550446  0.68957865  0.28242088     0.20100
C776        C  0.75893653  0.69045826  0.24344624     0.02200
C777        C  0.76144785  0.67334037  0.20616349    -0.13800
C778        C  0.77957046  0.65614534  0.20752107    -0.11500
C779        C  0.79592081  0.65524186  0.24594701     0.01800
C780        C  0.79374301  0.67216399  0.28327736    -0.23700
H781        H  0.69389923  0.72975843  0.17689733     0.09800
H782        H  0.72314287  0.69890447  0.17515167     0.13300
H783        H  0.72132817  0.75550557  0.31283467     0.12100
H784        H  0.75512872  0.73605319  0.35024933     0.13300
H785        H  0.78627960  0.70549840  0.35029397     0.12300
H786        H  0.74967819  0.67265726  0.17536295     0.09400
H787        H  0.78051822  0.64343226  0.17812565     0.12600
H788        H  0.80619770  0.67189691  0.31325819     0.14500
C789        C  0.29644245  0.74255452  0.74599840    -0.01000
C790        C  0.29101809  0.73064804  0.78919401    -0.09000
C791        C  0.27312703  0.71317461  0.79095829    -0.17800
C792        C  0.25996385  0.70684651  0.74921540     0.04500
C793        C  0.26540645  0.71902825  0.70545124     0.18700
C794        C  0.28346475  0.73665407  0.70423250    -0.19300
C795        C  0.25284910  0.71349529  0.66310442    -0.20500
C796        C  0.23506309  0.69597283  0.66316961    -0.19100
C797        C  0.22942615  0.68349635  0.70555658     0.20100
C798        C  0.24173586  0.68879866  0.74925116     0.02200
C799        C  0.23537993  0.67565240  0.79098558    -0.13800
C800        C  0.21781956  0.65785423  0.78925112    -0.11500
C801        C  0.20584650  0.65249830  0.74609300     0.01800
C802        C  0.21166022  0.66557069  0.70439441    -0.23700
H803        H  0.30041309  0.73498689  0.82224717     0.09800
H804        H  0.27007403  0.70500994  0.82565722     0.13300
H805        H  0.28753096  0.74558678  0.67046513     0.12100
H806        H  0.25686219  0.72273961  0.62962492     0.13300
H807        H  0.22573625  0.69206032  0.62973522     0.12300
H808        H  0.24366138  0.67857786  0.82561569     0.09400
H809        H  0.21354954  0.64840446  0.82227304     0.12600
H810        H  0.20265844  0.66158834  0.67066369     0.14500
C811        C  0.70905575  0.74758796  0.75591764    -0.01000
C812        C  0.72721952  0.74831860  0.72087715    -0.09000
C813        C  0.74543590  0.73117244  0.72011590    -0.17800
C814        C  0.74616065  0.71246991  0.75455340     0.04500
C815        C  0.72790331  0.71189781  0.79037037     0.18700
C816        C  0.70973450  0.72935693  0.79085426    -0.19300
C817        C  0.72768633  0.69372014  0.82523449    -0.20500
C818        C  0.74504113  0.67584896  0.82493497    -0.19100
C819        C  0.76314706  0.67576921  0.78993207     0.20100
C820        C  0.76412683  0.69418394  0.75447009     0.02200
C821        C  0.78295696  0.69335833  0.72033291    -0.13800
C822        C  0.79980691  0.67487857  0.72097433    -0.11500
C823        C  0.79861330  0.65652524  0.75553807     0.01800
C824        C  0.78021927  0.65724563  0.79010878    -0.23700
H825        H  0.72750569  0.76217785  0.69357464     0.09800
H826        H  0.75856329  0.73299632  0.69181417     0.13300
H827        H  0.69591361  0.72839887  0.81823862     0.12100
H828        H  0.71385396  0.69319228  0.85272099     0.13300
H829        H  0.74423012  0.66192061  0.85220280     0.12300
H830        H  0.78520816  0.70670751  0.69257845     0.09400
H831        H  0.81385043  0.67516205  0.69406079     0.12600
H832        H  0.77892745  0.64328656  0.81715817     0.14500
loop_ 
_geom_bond_atom_site_label_1 
_geom_bond_atom_site_label_2 
_geom_bond_distance 
_geom_bond_site_symmetry_2 
_ccdc_geom_bond_type 
N1            C6   1.353   1_556  A
N1            C5   1.353       .  A
N1           H33   1.035       .  S
N2            C9   1.352       .  A
N2           C10   1.351       .  A
N3            C8   1.355   1_556  A
N3            C7   1.354       .  A
N3           H34   1.034       .  S
N4           C11   1.352       .  A
N4           C12   1.353       .  A
C5           C13   1.387       .  A
C5           C21   1.412       .  A
C6           C22   1.412       .  A
C6           C14   1.387       .  A
C7           C15   1.387       .  A
C7           C24   1.414       .  A
C8           C23   1.415       .  A
C8           C16   1.387       .  A
C9           C21   1.411       .  A
C9           C17   1.386       .  A
C10          C24   1.412       .  A
C10          C18   1.387       .  A
C11          C19   1.386       .  A
C11          C22   1.413       .  A
C12          C20   1.386       .  A
C12          C23   1.413       .  A
C13          C14   1.373   1_556  A
C13          H25   1.082       .  S
C14          H26   1.082       .  S
C15          C16   1.374   1_556  A
C15          H27   1.082       .  S
C16          H28   1.082       .  S
C17          C18   1.371       .  A
C17          H29   1.082       .  S
C18          H30   1.082       .  S
C19          C20   1.372       .  A
C19          H31   1.082       .  S
C20          H32   1.082       .  S
C21          C48   1.480       .  S
C22          C96   1.481       .  S
C23         C110   1.486       .  S
C24          C62   1.480       .  S
N35          C39   1.343       .  A
N35          N36   1.322       .  A
N35         Cu43   2.066       .  S
N36          C37   1.342       .  A
N36         Cu42   2.058       .  S
C37          C38   1.379       .  A
C37          H40   1.082       .  S
C38          C39   1.380       .  A
C38         C154   1.472       .  S
C39          H41   1.082       .  S
Cu42         N45   2.059       .  S
Cu43         N53   2.067       .  S
Cu44         N46   2.081       .  S
Cu44         N52   2.080       .  S
N45          C49   1.344       .  A
N45          N46   1.323       .  A
N46          C47   1.345       .  A
C47          C48   1.383       .  A
C47          H50   1.082       .  S
C48          C49   1.380       .  A
C49          H51   1.082       .  S
N52          C56   1.346       .  A
N52          N53   1.320       .  A
N53          C54   1.343       .  A
C54          C55   1.388       .  A
C54          H57   1.081       .  S
C55          C56   1.391       .  A
C55         C811   1.489       .  S
C56          H58   1.081       .  S
N59          C63   1.344       .  A
N59          N60   1.322       .  A
N59         Cu67   2.069       .  S
N60          C61   1.344       .  A
N60         Cu66   2.068       .  S
C61          C62   1.382       .  A
C61          H64   1.082       .  S
C62          C63   1.382       .  A
C63          H65   1.082       .  S
Cu66         N69   2.068       .  S
Cu67         N77   2.069       .  S
Cu68         N70   2.076       .  S
Cu68         N76   2.075       .  S
N69          C73   1.344       .  A
N69          N70   1.323       .  A
N70          C71   1.345       .  A
C71          C72   1.384       .  A
C71          H74   1.082       .  S
C72          C73   1.381       .  A
C72         C185   1.483       .  S
C73          H75   1.082       .  S
N76          C80   1.345       .  A
N76          N77   1.321       .  A
N77          C78   1.343       .  A
C78          C79   1.386       .  A
C78          H81   1.081       .  S
C79          C80   1.388       .  A
C79         C789   1.484       .  S
C80          H82   1.081       .  S
N83          C87   1.344       .  A
N83          N84   1.323       .  A
N83         Cu91   2.074       .  S
N84          C85   1.345       .  A
N84         Cu90   2.069       .  S
C85          C86   1.381       .  A
C85          H88   1.082       .  S
C86          C87   1.381       .  A
C86         C153   1.477       .  S
C87          H89   1.082       .  S
Cu90         N93   2.068       .  S
Cu91        N101   2.074       .  S
Cu92         N94   2.076       .  S
Cu92        N100   2.076       .  S
N93          C97   1.344       .  A
N93          N94   1.322       .  A
N94          C95   1.345       .  A
C95          C96   1.383       .  A
C95          H98   1.082       .  S
C96          C97   1.381       .  A
C97          H99   1.082       .  S
N100        C104   1.343       .  A
N100        N101   1.320       .  A
N101        C102   1.346       .  A
C102        C103   1.390       .  A
C102        H105   1.081       .  S
C103        C104   1.390       .  A
C103        C767   1.490       .  S
C104        H106   1.081       .  S
N107        C111   1.346       .  A
N107        N108   1.323       .  A
N107       Cu115   2.082       .  S
N108        C109   1.346       .  A
N108       Cu114   2.080       .  S
C109        C110   1.384       .  A
C109        H112   1.082       .  S
C110        C111   1.384       .  A
C111        H113   1.082       .  S
Cu114       N117   2.080       .  S
Cu115       N125   2.082       .  S
Cu116       N118   2.067       .  S
Cu116       N124   2.067       .  S
N117        C121   1.346       .  A
N117        N118   1.323       .  A
N118        C119   1.344       .  A
C119        C120   1.381       .  A
C119        H122   1.082       .  S
C120        C121   1.384       .  A
C120        C186   1.481       .  S
C121        H123   1.082       .  S
N124        C128   1.343       .  A
N124        N125   1.320       .  A
N125        C126   1.346       .  A
C126        C127   1.391       .  A
C126        H129   1.081       .  S
C127        C128   1.388       .  A
C127        C745   1.490       .  S
C128        H130   1.081       .  S
N131        C136   1.353       .  A
N131        C135   1.354       .  A
N131        H163   1.038       .  S
N132        C139   1.351       .  A
N132        C140   1.350       .  A
N133        C138   1.352       .  A
N133        C137   1.351       .  A
N133        H164   1.038       .  S
N134        C141   1.350       .  A
N134        C142   1.351       .  A
C135        C143   1.387   1_565  A
C135        C151   1.414       .  A
C136        C152   1.413       .  A
C136        C144   1.387   1_565  A
C137        C145   1.388       .  A
C137        C154   1.410       .  A
C138        C153   1.409       .  A
C138        C146   1.386       .  A
C139        C151   1.410       .  A
C139        C147   1.386       .  A
C140        C154   1.410       .  A
C140        C148   1.387       .  A
C141        C149   1.387       .  A
C141        C152   1.410       .  A
C142        C150   1.385       .  A
C142        C153   1.408       .  A
C143        C144   1.374       .  A
C143        H155   1.082       .  S
C144        H156   1.082       .  S
C145        C146   1.374       .  A
C145        H157   1.082       .  S
C146        H158   1.082       .  S
C147        C148   1.372       .  A
C147        H159   1.082       .  S
C148        H160   1.082       .  S
C149        C150   1.372       .  A
C149        H161   1.082       .  S
C150        H162   1.082       .  S
C151        C270   1.482   1_565  S
C152        C294   1.478   1_565  S
N165        C170   1.354       .  A
N165        C169   1.353       .  A
N165        H197   1.036       .  S
N166        C173   1.353       .  A
N166        C174   1.354       .  A
N167        C172   1.354   1_565  A
N167        C171   1.354   1_565  A
N167        H198   1.036       .  S
N168        C175   1.352       .  A
N168        C176   1.351       .  A
C169        C177   1.388       .  A
C169        C185   1.415       .  A
C170        C186   1.414       .  A
C170        C178   1.387       .  A
C171        C179   1.387       .  A
C171        C188   1.415   1_545  A
C172        C187   1.415   1_545  A
C172        C180   1.387       .  A
C173        C185   1.415       .  A
C173        C181   1.386       .  A
C174        C188   1.415       .  A
C174        C182   1.386       .  A
C175        C183   1.386       .  A
C175        C186   1.411       .  A
C176        C184   1.387       .  A
C176        C187   1.412       .  A
C177        C178   1.374       .  A
C177        H189   1.082       .  S
C178        H190   1.082       .  S
C179        C180   1.375       .  A
C179        H191   1.082       .  S
C180        H192   1.082       .  S
C181        C182   1.371       .  A
C181        H193   1.082       .  S
C182        H194   1.082       .  S
C183        C184   1.371       .  A
C183        H195   1.082       .  S
C184        H196   1.082       .  S
C187        C308   1.481   1_565  S
C188        C236   1.487   1_565  S
N199        C204   1.352   1_554  A
N199        C203   1.354       .  A
N199        H231   1.041       .  S
N200        C207   1.353       .  A
N200        C208   1.352       .  A
N201        C206   1.355   1_554  A
N201        C205   1.353       .  A
N201        H232   1.040       .  S
N202        C209   1.352       .  A
N202        C210   1.352       .  A
C203        C211   1.387       .  A
C203        C219   1.413       .  A
C204        C220   1.413       .  A
C204        C212   1.387       .  A
C205        C213   1.387       .  A
C205        C222   1.415       .  A
C206        C221   1.416       .  A
C206        C214   1.387       .  A
C207        C219   1.413       .  A
C207        C215   1.386       .  A
C208        C222   1.413       .  A
C208        C216   1.386       .  A
C209        C217   1.386       .  A
C209        C220   1.413       .  A
C210        C218   1.386       .  A
C210        C221   1.414       .  A
C211        C212   1.373   1_554  A
C211        H223   1.082       .  S
C212        H224   1.082       .  S
C213        C214   1.374   1_554  A
C213        H225   1.082       .  S
C214        H226   1.082       .  S
C215        C216   1.372       .  A
C215        H227   1.082       .  S
C216        H228   1.082       .  S
C217        C218   1.372       .  A
C217        H229   1.082       .  S
C218        H230   1.082       .  S
C219        C318   1.484       .  S
C220        C246   1.480       .  S
C221        C260   1.485       .  S
C222        C284   1.481       .  S
N233        C237   1.346       .  A
N233        N234   1.322       .  A
N233       Cu241   2.080       .  S
N234        C235   1.346       .  A
N234       Cu240   2.073       .  S
C235        C236   1.384       .  A
C235        H238   1.082       .  S
C236        C237   1.385       .  A
C237        H239   1.082       .  S
Cu240       N243   2.073       .  S
Cu241       N251   2.080       .  S
Cu242       N244   2.076       .  S
Cu242       N250   2.076       .  S
N243        C247   1.345       .  A
N243        N244   1.323       .  A
N244        C245   1.345       .  A
C245        C246   1.383       .  A
C245        H248   1.082       .  S
C246        C247   1.381       .  A
C247        H249   1.082       .  S
N250        C254   1.346       .  A
N250        N251   1.322       .  A
N251        C252   1.344       .  A
C252        C253   1.388       .  A
C252        H255   1.081       .  S
C253        C254   1.388       .  A
C253        C723   1.487       .  S
C254        H256   1.081       .  S
N257        C261   1.346       .  A
N257        N258   1.324       .  A
N257       Cu265   2.082       .  S
N258        C259   1.346       .  A
N258       Cu264   2.080       .  S
C259        C260   1.383       .  A
C259        H262   1.082       .  S
C260        C261   1.383       .  A
C261        H263   1.082       .  S
Cu264       N267   2.079       .  S
Cu265       N275   2.082       .  S
Cu266       N268   2.065       .  S
Cu266       N274   2.066       .  S
N267        C271   1.347       .  A
N267        N268   1.322       .  A
N268        C269   1.343       .  A
C269        C270   1.381       .  A
C269        H272   1.082       .  S
C270        C271   1.385       .  A
C271        H273   1.082   1_545  S
N274        C278   1.343       .  A
N274        N275   1.321       .  A
N275        C276   1.346       .  A
C276        C277   1.389       .  A
C276        H279   1.081       .  S
C277        C278   1.386       .  A
C277        C701   1.485       .  S
C278        H280   1.081       .  S
N281        C285   1.345       .  A
N281        N282   1.323       .  A
N281       Cu289   2.075       .  S
N282        C283   1.345       .  A
N282       Cu288   2.069       .  S
C283        C284   1.381       .  A
C283        H286   1.082       .  S
C284        C285   1.382       .  A
C285        H287   1.082       .  S
Cu288       N291   2.068       .  S
Cu289       N299   2.076       .  S
Cu290       N292   2.068       .  S
Cu290       N298   2.069       .  S
N291        C295   1.344       .  A
N291        N292   1.322       .  A
N292        C293   1.344       .  A
C293        C294   1.381       .  A
C293        H296   1.082       .  S
C294        C295   1.382       .  A
C295        H297   1.082       .  S
N298        C302   1.344       .  A
N298        N299   1.321       .  A
N299        C300   1.345       .  A
C300        C301   1.388       .  A
C300        H303   1.081       .  S
C301        C302   1.387       .  A
C301        C691   1.485       .  S
C302        H304   1.081       .  S
N305        C309   1.345       .  A
N305        N306   1.322       .  A
N305       Cu313   2.069       .  S
N306        C307   1.344       .  A
N306       Cu312   2.071       .  S
C307        C308   1.382       .  A
C307        H310   1.082       .  S
C308        C309   1.382       .  A
C309        H311   1.082       .  S
Cu312       N315   2.072       .  S
Cu313       N323   2.068       .  S
Cu314       N316   2.076       .  S
Cu314       N322   2.076       .  S
N315        C319   1.345       .  A
N315        N316   1.323       .  A
N316        C317   1.346       .  A
C317        C318   1.384       .  A
C317        H320   1.082       .  S
C318        C319   1.382       .  A
C319        H321   1.082       .  S
N322        C326   1.345       .  A
N322        N323   1.321       .  A
N323        C324   1.342       .  A
C324        C325   1.386       .  A
C324        H327   1.081       .  S
C325        C326   1.388       .  A
C325        C669   1.484       .  S
C326        H328   1.081       .  S
N329        C334   1.354       .  A
N329        C333   1.353       .  A
N329        H361   1.034       .  S
N330        C337   1.351       .  A
N330        C338   1.351   1_655  A
N331        C336   1.352       .  A
N331        C335   1.353       .  A
N331        H362   1.035       .  S
N332        C339   1.351       .  A
N332        C340   1.351   1_655  A
C333        C341   1.387       .  A
C333        C349   1.414       .  A
C334        C350   1.413       .  A
C334        C342   1.387       .  A
C335        C343   1.387       .  A
C335        C352   1.412       .  A
C336        C351   1.410       .  A
C336        C344   1.387       .  A
C337        C349   1.411       .  A
C337        C345   1.386       .  A
C338        C352   1.411       .  A
C338        C346   1.386       .  A
C339        C347   1.386       .  A
C339        C350   1.411       .  A
C340        C348   1.386       .  A
C340        C351   1.410       .  A
C341        C342   1.375       .  A
C341        H353   1.082       .  S
C342        H354   1.082       .  S
C343        C344   1.374       .  A
C343        H355   1.082       .  S
C344        H356   1.082       .  S
C345        C346   1.372   1_655  A
C345        H357   1.082       .  S
C346        H358   1.082       .  S
C347        C348   1.372   1_655  A
C347        H359   1.082       .  S
C348        H360   1.082       .  S
C349        C598   1.480       .  S
C350        C622   1.481       .  S
C351        C516   1.476       .  S
C352        C444   1.479       .  S
N363        C368   1.353       .  A
N363        C367   1.352       .  A
N363        H395   1.040       .  S
N364        C371   1.351   1_455  A
N364        C372   1.352       .  A
N365        C370   1.352       .  A
N365        C369   1.353       .  A
N365        H396   1.040       .  S
N366        C373   1.353   1_455  A
N366        C374   1.351       .  A
C367        C375   1.387       .  A
C367        C383   1.412       .  A
C368        C384   1.412       .  A
C368        C376   1.386       .  A
C369        C377   1.386       .  A
C369        C386   1.413       .  A
C370        C385   1.414       .  A
C370        C378   1.388       .  A
C371        C383   1.412       .  A
C371        C379   1.386       .  A
C372        C386   1.411       .  A
C372        C380   1.386       .  A
C373        C381   1.385       .  A
C373        C384   1.412       .  A
C374        C382   1.387       .  A
C374        C385   1.413       .  A
C375        C376   1.373       .  A
C375        H387   1.082       .  S
C376        H388   1.082       .  S
C377        C378   1.375       .  A
C377        H389   1.082       .  S
C378        H390   1.082       .  S
C379        C380   1.371   1_655  A
C379        H391   1.082       .  S
C380        H392   1.082       .  S
C381        C382   1.372   1_655  A
C381        H393   1.082       .  S
C382        H394   1.082       .  S
C383        C636   1.479       .  S
C384        C564   1.485       .  S
C385        C458   1.479       .  S
C386        C482   1.480       .  S
N397        C402   1.352   1_554  A
N397        C401   1.352       .  A
N397        H429   1.039       .  S
N398        C405   1.352       .  A
N398        C406   1.352       .  A
N399        C404   1.353   1_554  A
N399        C403   1.353       .  A
N399        H430   1.040       .  S
N400        C407   1.352       .  A
N400        C408   1.351       .  A
C401        C409   1.387       .  A
C401        C417   1.412       .  A
C402        C418   1.412       .  A
C402        C410   1.387       .  A
C403        C411   1.387       .  A
C403        C420   1.413       .  A
C404        C419   1.413       .  A
C404        C412   1.387       .  A
C405        C417   1.412       .  A
C405        C413   1.386       .  A
C406        C420   1.412       .  A
C406        C414   1.386       .  A
C407        C415   1.386       .  A
C407        C418   1.411       .  A
C408        C416   1.386       .  A
C408        C419   1.411       .  A
C409        C410   1.372   1_554  A
C409        H421   1.082       .  S
C410        H422   1.082       .  S
C411        C412   1.373   1_554  A
C411        H423   1.082       .  S
C412        H424   1.082       .  S
C413        C414   1.370       .  A
C413        H425   1.082       .  S
C414        H426   1.082       .  S
C415        C416   1.370       .  A
C415        H427   1.082       .  S
C416        H428   1.082       .  S
C417        C492   1.477       .  S
C418        C468   1.479       .  S
C419        C434   1.478       .  S
C420        C506   1.480       .  S
N431        C435   1.344       .  A
N431        N432   1.322       .  A
N431       Cu439   2.066       .  S
N432        C433   1.344       .  A
N432       Cu438   2.067       .  S
C433        C434   1.382       .  A
C433        H436   1.082       .  S
C434        C435   1.381       .  A
C435        H437   1.082       .  S
Cu438       N441   2.068       .  S
Cu439       N449   2.067       .  S
Cu440       N442   2.073       .  S
Cu440       N448   2.073       .  S
N441        C445   1.344       .  A
N441        N442   1.323       .  A
N442        C443   1.344       .  A
C443        C444   1.382       .  A
C443        H446   1.082       .  S
C444        C445   1.381       .  A
C445        H447   1.082       .  S
N448        C452   1.345       .  A
N448        N449   1.321       .  A
N449        C450   1.342       .  A
C450        C451   1.386       .  A
C450        H453   1.081       .  S
C451        C452   1.388       .  A
C451        C801   1.484       .  S
C452        H454   1.081       .  S
N455        C459   1.344       .  A
N455        N456   1.322       .  A
N455       Cu463   2.071       .  S
N456        C457   1.344       .  A
N456       Cu462   2.064       .  S
C457        C458   1.382       .  A
C457        H460   1.082       .  S
C458        C459   1.382       .  A
C459        H461   1.082       .  S
Cu462       N465   2.064       .  S
Cu463       N473   2.072       .  S
Cu464       N466   2.077       .  S
Cu464       N472   2.077       .  S
N465        C469   1.343       .  A
N465        N466   1.323       .  A
N466        C467   1.345       .  A
C467        C468   1.383       .  A
C467        H470   1.082       .  S
C468        C469   1.380       .  A
C469        H471   1.082       .  S
N472        C476   1.346       .  A
N472        N473   1.321       .  A
N473        C474   1.344       .  A
C474        C475   1.387       .  A
C474        H477   1.081       .  S
C475        C476   1.389       .  A
C475        C735   1.487       .  S
C476        H478   1.081       .  S
N479        C483   1.345       .  A
N479        N480   1.321       .  A
N479       Cu487   2.066       .  S
N480        C481   1.344       .  A
N480       Cu486   2.068       .  S
C481        C482   1.383       .  A
C481        H484   1.082       .  S
C482        C483   1.382       .  A
C483        H485   1.082       .  S
Cu486       N489   2.068       .  S
Cu487       N497   2.065       .  S
Cu488       N490   2.068       .  S
Cu488       N496   2.068       .  S
N489        C493   1.343       .  A
N489        N490   1.323       .  A
N490        C491   1.344       .  A
C491        C492   1.381       .  A
C491        H494   1.082       .  S
C492        C493   1.380       .  A
C493        H495   1.082       .  S
N496        C500   1.344       .  A
N496        N497   1.321       .  A
N497        C498   1.341       .  A
C498        C499   1.386       .  A
C498        H501   1.081       .  S
C499        C500   1.388       .  A
C499        C657   1.483       .  S
C500        H502   1.081       .  S
N503        C507   1.345       .  A
N503        N504   1.322       .  A
N503       Cu511   2.076       .  S
N504        C505   1.343       .  A
N504       Cu510   2.063       .  S
C505        C506   1.381       .  A
C505        H508   1.082       .  S
C506        C507   1.383       .  A
C507        H509   1.082       .  S
Cu510       N513   2.063       .  S
Cu511       N521   2.076       .  S
Cu512       N514   2.072       .  S
Cu512       N520   2.073       .  S
N513        C517   1.344       .  A
N513        N514   1.323       .  A
N514        C515   1.344       .  A
C515        C516   1.381       .  A
C515        H518   1.082       .  S
C516        C517   1.380       .  A
C517        H519   1.082       .  S
N520        C524   1.344       .  A
N520        N521   1.320       .  A
N521        C522   1.345       .  A
C522        C523   1.390       .  A
C522        H525   1.081       .  S
C523        C524   1.389       .  A
C523        C757   1.490       .  S
C524        H526   1.081       .  S
N527        C532   1.355   1_554  A
N527        C531   1.354       .  A
N527        H559   1.038       .  S
N528        C535   1.353       .  A
N528        C536   1.354       .  A
N529        C534   1.354   1_554  A
N529        C533   1.354       .  A
N529        H560   1.039       .  S
N530        C537   1.352       .  A
N530        C538   1.352       .  A
C531        C539   1.387       .  A
C531        C547   1.416       .  A
C532        C548   1.416       .  A
C532        C540   1.387       .  A
C533        C541   1.387       .  A
C533        C550   1.414       .  A
C534        C549   1.414       .  A
C534        C542   1.387       .  A
C535        C547   1.415       .  A
C535        C543   1.386       .  A
C536        C550   1.415       .  A
C536        C544   1.386       .  A
C537        C545   1.387       .  A
C537        C548   1.413       .  A
C538        C546   1.386       .  A
C538        C549   1.412       .  A
C539        C540   1.376   1_554  A
C539        H551   1.082       .  S
C540        H552   1.082       .  S
C541        C542   1.373   1_554  A
C541        H553   1.082       .  S
C542        H554   1.082       .  S
C543        C544   1.372       .  A
C543        H555   1.082       .  S
C544        H556   1.082       .  S
C545        C546   1.373       .  A
C545        H557   1.082       .  S
C546        H558   1.082       .  S
C547        C646   1.485       .  S
C548        C574   1.484       .  S
C549        C588   1.482       .  S
C550        C612   1.487       .  S
N561        C565   1.345       .  A
N561        N562   1.323       .  A
N561       Cu569   2.079       .  S
N562        C563   1.347       .  A
N562       Cu568   2.078       .  S
C563        C564   1.384       .  A
C563        H566   1.082       .  S
C564        C565   1.384       .  A
C565        H567   1.082       .  S
Cu568       N571   2.078       .  S
Cu569       N579   2.079       .  S
Cu570       N572   2.081       .  S
Cu570       N578   2.081       .  S
N571        C575   1.346       .  A
N571        N572   1.323       .  A
N572        C573   1.347       .  A
C573        C574   1.383       .  A
C573        H576   1.082       .  S
C574        C575   1.383       .  A
C575        H577   1.082       .  S
N578        C582   1.346       .  A
N578        N579   1.322       .  A
N579        C580   1.346       .  A
C580        C581   1.388       .  A
C580        H583   1.081       .  S
C581        C582   1.389       .  A
C581        C713   1.488       .  S
C582        H584   1.081       .  S
N585        C589   1.345       .  A
N585        N586   1.323       .  A
N585       Cu593   2.073       .  S
N586        C587   1.346       .  A
N586       Cu592   2.077       .  S
C587        C588   1.383       .  A
C587        H590   1.082       .  S
C588        C589   1.382       .  A
C589        H591   1.082       .  S
Cu592       N595   2.076       .  S
Cu593       N603   2.073       .  S
Cu594       N596   2.067       .  S
Cu594       N602   2.067       .  S
N595        C599   1.345       .  A
N595        N596   1.322       .  A
N596        C597   1.344       .  A
C597        C598   1.381       .  A
C597        H600   1.082       .  S
C598        C599   1.383       .  A
C599        H601   1.082       .  S
N602        C606   1.342       .  A
N602        N603   1.320       .  A
N603        C604   1.345       .  A
C604        C605   1.390       .  A
C604        H607   1.081       .  S
C605        C606   1.388       .  A
C605        C823   1.487       .  S
C606        H608   1.081       .  S
N609        C613   1.346       .  A
N609        N610   1.322       .  A
N609       Cu617   2.077       .  S
N610        C611   1.345       .  A
N610       Cu616   2.074       .  S
C611        C612   1.384       .  A
C611        H614   1.082       .  S
C612        C613   1.385       .  A
C613        H615   1.082       .  S
Cu616       N619   2.074       .  S
Cu617       N627   2.078       .  S
Cu618       N620   2.073       .  S
Cu618       N626   2.073       .  S
N619        C623   1.345       .  A
N619        N620   1.323       .  A
N620        C621   1.345       .  A
C621        C622   1.382       .  A
C621        H624   1.082       .  S
C622        C623   1.382       .  A
C623        H625   1.082       .  S
N626        C630   1.345       .  A
N626        N627   1.322       .  A
N627        C628   1.343       .  A
C628        C629   1.389       .  A
C628        H631   1.081       .  S
C629        C630   1.389       .  A
C629        C779   1.489       .  S
C630        H632   1.081       .  S
N633        C637   1.344       .  A
N633        N634   1.323       .  A
N633       Cu641   2.074       .  S
N634        C635   1.344       .  A
N634       Cu640   2.069       .  S
C635        C636   1.381       .  A
C635        H638   1.082       .  S
C636        C637   1.382       .  A
C637        H639   1.082       .  S
Cu640       N643   2.070       .  S
Cu641       N651   2.074       .  S
Cu642       N644   2.082       .  S
Cu642       N650   2.082       .  S
N643        C647   1.346       .  A
N643        N644   1.322       .  A
N644        C645   1.346       .  A
C645        C646   1.384       .  A
C645        H648   1.082       .  S
C646        C647   1.383       .  A
C647        H649   1.082       .  S
N650        C654   1.345       .  A
N650        N651   1.322       .  A
N651        C652   1.345       .  A
C652        C653   1.387       .  A
C652        H655   1.081       .  S
C653        C654   1.388       .  A
C653        C679   1.486       .  S
C654        H656   1.081       .  S
C657        C658   1.402       .  A
C657        C662   1.402       .  A
C658        C659   1.394       .  A
C658        H671   1.081       .  S
C659        C660   1.413       .  A
C659        H672   1.077       .  S
C660        C666   1.428       .  A
C660        C661   1.421       .  A
C661        C663   1.399       .  A
C661        C662   1.403       .  A
C662        H673   1.082       .  S
C663        C664   1.388       .  A
C663        H674   1.084       .  S
C664        C665   1.399       .  A
C664        H675   1.084       .  S
C665        C666   1.422       .  A
C665        C670   1.403       .  A
C666        C667   1.414       .  A
C667        C668   1.395       .  A
C667        H676   1.077       .  S
C668        C669   1.402       .  A
C668        H677   1.082       .  S
C669        C670   1.402       .  A
C670        H678   1.083       .  S
C679        C680   1.401       .  A
C679        C684   1.403       .  A
C680        C681   1.397       .  A
C680        H693   1.082       .  S
C681        C682   1.414       .  A
C681        H694   1.077       .  S
C682        C688   1.431       .  A
C682        C683   1.422       .  A
C683        C685   1.400       .  A
C683        C684   1.406       .  A
C684        H695   1.083       .  S
C685        C686   1.390       .  A
C685        H696   1.084       .  S
C686        C687   1.399       .  A
C686        H697   1.084       .  S
C687        C688   1.422       .  A
C687        C692   1.405       .  A
C688        C689   1.415       .  A
C689        C690   1.397       .  A
C689        H698   1.077       .  S
C690        C691   1.401       .  A
C690        H699   1.082       .  S
C691        C692   1.402       .  A
C692        H700   1.083       .  S
C701        C702   1.402       .  A
C701        C706   1.402       .  A
C702        C703   1.397       .  A
C702        H715   1.082       .  S
C703        C704   1.414       .  A
C703        H716   1.077       .  S
C704        C710   1.432       .  A
C704        C705   1.422       .  A
C705        C707   1.399       .  A
C705        C706   1.406       .  A
C706        H717   1.084       .  S
C707        C708   1.390       .  A
C707        H718   1.084       .  S
C708        C709   1.400       .  A
C708        H719   1.084       .  S
C709        C710   1.422       .  A
C709        C714   1.407       .  A
C710        C711   1.415       .  A
C711        C712   1.397       .  A
C711        H720   1.077       .  S
C712        C713   1.402       .  A
C712        H721   1.082       .  S
C713        C714   1.404       .  A
C714        H722   1.083       .  S
C723        C724   1.402       .  A
C723        C728   1.403       .  A
C724        C725   1.397       .  A
C724        H737   1.082       .  S
C725        C726   1.414       .  A
C725        H738   1.077       .  S
C726        C732   1.431       .  A
C726        C727   1.422       .  A
C727        C729   1.400       .  A
C727        C728   1.406       .  A
C728        H739   1.083       .  S
C729        C730   1.390       .  A
C729        H740   1.084       .  S
C730        C731   1.399       .  A
C730        H741   1.084       .  S
C731        C732   1.422       .  A
C731        C736   1.406       .  A
C732        C733   1.414       .  A
C733        C734   1.397       .  A
C733        H742   1.077       .  S
C734        C735   1.402       .  A
C734        H743   1.082       .  S
C735        C736   1.403       .  A
C736        H744   1.083       .  S
C745        C746   1.403       .  A
C745        C750   1.404       .  A
C746        C747   1.396       .  A
C746        H759   1.081       .  S
C747        C748   1.413       .  A
C747        H760   1.077       .  S
C748        C754   1.431       .  A
C748        C749   1.422       .  A
C749        C751   1.399       .  A
C749        C750   1.406       .  A
C750        H761   1.082       .  S
C751        C752   1.390       .  A
C751        H762   1.084       .  S
C752        C753   1.400       .  A
C752        H763   1.084       .  S
C753        C754   1.421       .  A
C753        C758   1.406       .  A
C754        C755   1.414       .  A
C755        C756   1.397       .  A
C755        H764   1.077       .  S
C756        C757   1.403       .  A
C756        H765   1.081       .  S
C757        C758   1.404       .  A
C758        H766   1.082       .  S
C767        C768   1.402       .  A
C767        C772   1.405       .  A
C768        C769   1.394       .  A
C768        H781   1.081       .  S
C769        C770   1.413       .  A
C769        H782   1.077       .  S
C770        C776   1.430       .  A
C770        C771   1.421       .  A
C771        C773   1.400       .  A
C771        C772   1.407       .  A
C772        H783   1.082       .  S
C773        C774   1.391       .  A
C773        H784   1.084       .  S
C774        C775   1.400       .  A
C774        H785   1.084       .  S
C775        C776   1.421       .  A
C775        C780   1.407       .  A
C776        C777   1.413       .  A
C777        C778   1.394       .  A
C777        H786   1.077       .  S
C778        C779   1.402       .  A
C778        H787   1.081       .  S
C779        C780   1.405       .  A
C780        H788   1.082       .  S
C789        C790   1.401       .  A
C789        C794   1.403       .  A
C790        C791   1.394       .  A
C790        H803   1.082       .  S
C791        C792   1.414       .  A
C791        H804   1.077       .  S
C792        C798   1.429       .  A
C792        C793   1.422       .  A
C793        C795   1.400       .  A
C793        C794   1.406       .  A
C794        H805   1.083       .  S
C795        C796   1.391       .  A
C795        H806   1.084       .  S
C796        C797   1.400       .  A
C796        H807   1.084       .  S
C797        C798   1.422       .  A
C797        C802   1.406       .  A
C798        C799   1.413       .  A
C799        C800   1.393       .  A
C799        H808   1.077       .  S
C800        C801   1.401       .  A
C800        H809   1.082       .  S
C801        C802   1.403       .  A
C802        H810   1.083       .  S
C811        C812   1.403       .  A
C811        C816   1.404       .  A
C812        C813   1.396       .  A
C812        H825   1.081       .  S
C813        C814   1.413       .  A
C813        H826   1.077       .  S
C814        C820   1.430       .  A
C814        C815   1.421       .  A
C815        C817   1.400       .  A
C815        C816   1.406       .  A
C816        H827   1.082       .  S
C817        C818   1.390       .  A
C817        H828   1.084       .  S
C818        C819   1.399       .  A
C818        H829   1.084       .  S
C819        C820   1.422       .  A
C819        C824   1.405       .  A
C820        C821   1.413       .  A
C821        C822   1.395       .  A
C821        H830   1.077       .  S
C822        C823   1.402       .  A
C822        H831   1.081       .  S
C823        C824   1.403       .  A
C824        H832   1.082       .  S
