geometry optimzed in LAMMPS
_audit_creation_date              2020-12-01 
_audit_creation_method            'lammps2cif' 
_symmetry_space_group_name_H-M    'P1' 
_symmetry_Int_Tables_number       1 
_symmetry_cell_setting            triclinic 
loop_ 
_symmetry_equiv_pos_as_xyz 
  x,y,z 
_cell_length_a                    39.14489971 
_cell_length_b                    38.86222899763611 
_cell_length_c                    50.082617481820584 
_cell_angle_alpha                 90.10274426557575 
_cell_angle_beta                  88.94366630347668 
_cell_angle_gamma                 120.26267032588419 
loop_ 
_atom_site_label 
_atom_site_type_symbol 
_atom_site_fract_x 
_atom_site_fract_y 
_atom_site_fract_z 
_atom_site_charge 
Zn1        Zn  0.08881465  0.16996172  0.62748747     1.49700
Zn2        Zn  0.07760585  0.24455653  0.62839753     1.49400
Zn3        Zn  0.16283175  0.25630593  0.62807324     1.49100
Zn4        Zn  0.11213888  0.22544527  0.57473987     1.49500
O5          O  0.11029320  0.22406300  0.61366825    -1.83800
O6          O  0.04933827  0.15957681  0.65675476    -0.74400
O7          O  0.10598622  0.28253398  0.65839746    -0.74200
O8          O  0.17026864  0.22584307  0.65723732    -0.73800
O9          O  0.03055780  0.20336990  0.64870534    -0.74400
O10         O  0.12731131  0.16289558  0.64878315    -0.74000
O11         O  0.16857931  0.30229738  0.64910534    -0.74600
O12         O  0.17165858  0.25532927  0.56203915    -0.74000
O13         O  0.06018882  0.26852660  0.59966189    -0.74800
O14         O  0.20603839  0.27491248  0.59961190    -0.74200
O15         O  0.08277330  0.25493888  0.56212191    -0.74600
O16         O  0.08336447  0.16667566  0.56120052    -0.74500
O17         O  0.06670654  0.12927206  0.59827985    -0.74300
C18         C  0.02936326  0.17593697  0.66314279     0.77500
C19         C  0.14237584  0.30291649  0.66410824     0.78000
C20         C  0.15414981  0.18911196  0.66321716     0.76900
C21         C  0.20473101  0.27264298  0.57422838     0.77300
C22         C  0.06396574  0.26972670  0.57429112     0.78400
C23         C  0.06730537  0.13254628  0.57295558     0.77500
C24         C  0.21788754  0.11455181  0.79440519     0.45800
H25         H  0.21387529  0.11366044  0.81648425    -0.03200
C26         C  0.22547359  0.11710932  0.74309929     0.45900
H27         H  0.22859526  0.11842757  0.72092751    -0.03200
C28         C  0.26068015  0.12966523  0.78493097    -0.16900
C29         C  0.19340788  0.07379476  0.78132084    -0.16700
C30         C  0.20589176  0.14193270  0.78088670    -0.17000
C31         C  0.26461393  0.13159287  0.75747144    -0.17000
C32         C  0.19818050  0.07508084  0.75412356    -0.16600
C33         C  0.20869298  0.14242148  0.75378016    -0.16900
Zn34       Zn  0.14247003  0.19547304  0.92751895     1.49700
Zn35       Zn  0.11506351  0.22720833  0.88460731     1.49400
Zn36       Zn  0.05884083  0.19463796  0.92909708     1.49100
Zn37       Zn  0.14329162  0.27904980  0.92968376     1.49500
O38         O  0.11458413  0.22325322  0.92153512    -1.83800
O39         O  0.15638079  0.18149880  0.89103032    -0.74400
O40         O  0.07321120  0.18071302  0.86757020    -0.74200
O41         O  0.04735430  0.14521469  0.95005188    -0.73800
O42         O  0.16464785  0.23474940  0.86927000    -0.74400
O43         O  0.10437148  0.14458997  0.94838546    -0.74000
O44         O  0.02656421  0.17742701  0.89470188    -0.74600
O45         O  0.10423613  0.29023956  0.95024315    -0.74000
O46         O  0.10729974  0.27072336  0.87373933    -0.74800
O47         O  0.04661213  0.23225840  0.94979830    -0.74200
O48         O  0.16147565  0.31197146  0.89477884    -0.74600
O49         O  0.19222572  0.29007242  0.95051246    -0.74500
O50         O  0.19320057  0.23301956  0.94773521    -0.74300
C51         C  0.16706902  0.20356995  0.87014844     0.77500
C52         C  0.03777025  0.17140126  0.87196865     0.78000
C53         C  0.06789977  0.12903475  0.95547215     0.76900
C54         C  0.06727864  0.26898397  0.95612603     0.77300
C55         C  0.13919827  0.30348558  0.87467215     0.78400
C56         C  0.20851948  0.26930588  0.95520757     0.77500
Zn57       Zn  0.25165447  0.08515838  0.40427070     1.49700
Zn58       Zn  0.22563510  0.11445711  0.45679471     1.49400
Zn59       Zn  0.25357525  0.16913807  0.40376644     1.49100
Zn60       Zn  0.17236599  0.08679887  0.40435333     1.49500
O61         O  0.22597182  0.11410443  0.41790403    -1.83800
O62         O  0.27517926  0.06784438  0.43307602    -0.74400
O63         O  0.25448216  0.17374933  0.46963627    -0.74200
O64         O  0.29466247  0.17607346  0.37696820    -0.73800
O65         O  0.25542296  0.08566615  0.46995973    -0.74400
O66         O  0.29101578  0.11731433  0.37616449    -0.74000
O67         O  0.27539344  0.21122543  0.43265490    -0.74600
O68         O  0.16490175  0.12092961  0.37912477    -0.74000
O69         O  0.16660826  0.08401824  0.47013002    -0.74800
O70         O  0.22016881  0.17937655  0.37891147    -0.74200
O71         O  0.13055552  0.06576430  0.43330229    -0.74600
O72         O  0.16325088  0.04399473  0.37894172    -0.74500
O73         O  0.21658686  0.03842310  0.38171644    -0.74300
C74         C  0.27325901  0.06934132  0.45842311     0.77500
C75         C  0.27260087  0.20807490  0.45805164     0.78000
C76         C  0.30304007  0.15155583  0.36614384     0.76900
C77         C  0.18663715  0.15550843  0.36929936     0.77300
C78         C  0.13295708  0.06684533  0.45862451     0.78400
C79         C  0.18380493  0.02895143  0.37114808     0.77500
C80         C  0.10616743  0.21504207  0.28953143     0.45800
H81         H  0.10214949  0.21224183  0.31162902    -0.03200
C82         C  0.11461353  0.22095898  0.23829792     0.45900
H83         H  0.11781736  0.22358302  0.21614879    -0.03200
C84         C  0.06698476  0.19668712  0.27469880    -0.16900
C85         C  0.13011104  0.25837012  0.27968263    -0.16700
C86         C  0.12830114  0.19501004  0.27808150    -0.17000
C87         C  0.07154190  0.19871171  0.24758935    -0.17000
C88         C  0.13346482  0.26127895  0.25235078    -0.16600
C89         C  0.13352419  0.19887907  0.25095616    -0.16900
Zn90       Zn  0.24854164  0.16348958  0.12334695     1.49700
Zn91       Zn  0.24848242  0.08303092  0.12459251     1.49400
Zn92       Zn  0.16655040  0.08042622  0.12444319     1.49100
Zn93       Zn  0.22141796  0.10941172  0.07116581     1.49500
O94         O  0.22109105  0.10896647  0.11022329    -1.83800
O95         O  0.29007061  0.17317246  0.14943755    -0.74400
O96         O  0.21537992  0.04311998  0.15268370    -0.74200
O97         O  0.15921166  0.11387696  0.15130947    -0.73800
O98         O  0.29420603  0.11869674  0.14722001    -0.74400
O99         O  0.21396830  0.17278653  0.14731103    -0.74000
O100        O  0.15577163  0.03538855  0.14899853    -0.74600
O101        O  0.16301696  0.08053487  0.05816273    -0.74000
O102        O  0.26633431  0.05990888  0.09541518    -0.74800
O103        O  0.12577511  0.06221528  0.09549415    -0.74200
O104        O  0.25025423  0.07968951  0.05816316    -0.74600
O105        O  0.25194569  0.16838439  0.05737928    -0.74500
O106        O  0.27118778  0.20480387  0.09438012    -0.74300
C107        C  0.30405802  0.15211273  0.15772826     0.77500
C108        C  0.17983253  0.02818579  0.16098801     0.78000
C109        C  0.18140693  0.14934412  0.15907226     0.76900
C110        C  0.12906518  0.06402038  0.07010666     0.77300
C111        C  0.26588338  0.06192645  0.07006448     0.78400
C112        C  0.26983656  0.20220052  0.06909339     0.77500
Zn113      Zn  0.02759943  0.30358638  0.02698425     1.49700
Zn114      Zn  0.28064411  0.30519741  0.02602260     1.49400
Zn115      Zn  0.02798753  0.05457708  0.02660131     1.46500
Zn116      Zn  0.00206073  0.00037768  0.97260907     1.49500
O117        O  0.00118519  0.99986409  0.01224020    -1.83800
O118        O  0.32577210  0.25619668  0.04748914    -0.74400
O119        O  0.26429584  0.00753348  0.04736749    -0.74200
O120        O  0.07624056  0.06636231  0.04885303    -0.73800
O121        O  0.26851448  0.25541245  0.04711086    -0.74400
O122        O  0.07732545  0.00971968  0.04711637    -0.74000
O123        O  0.32179707  0.06478391  0.04877122    -0.74600
O124        O  0.03216216  0.05836928  0.95917748    -0.74000
O125        O  0.24193712  0.28562078  0.99601082    -0.74800
O126        O  0.04927178  0.09436612  0.99641154    -0.74200
O127        O  0.27900368  0.30478244  0.95883535    -0.74600
O128        O  0.03188726  0.30388057  0.95959960    -0.74500
O129        O  0.04808799  0.28460508  0.99688002    -0.74300
C130        C  0.28897197  0.23961759  0.05346003     0.77500
C131        C  0.28487460  0.04385179  0.05439584     0.78000
C132        C  0.09244333  0.04587927  0.05441712     0.76900
C133        C  0.04898364  0.09188805  0.97109196     0.77300
C134        C  0.24516067  0.28738855  0.97070089     0.78400
C135        C  0.04808845  0.28687667  0.97157785     0.77500
Zn136      Zn  0.05734598  0.02917564  0.53020624     1.49700
Zn137      Zn  0.30740337  0.03093314  0.53002862     1.49400
Zn138      Zn  0.00212282  0.33581988  0.47753165     1.49100
Zn139      Zn  0.30741140  0.28102761  0.53029491     1.49500
O140        O  0.00070520  0.33557185  0.51714694    -1.83800
O141        O  0.06908713  0.07882079  0.55155504    -0.74400
O142        O  0.28911456  0.05199620  0.49996982    -0.74200
O143        O  0.06221764  0.03092660  0.46325860    -0.73800
O144        O  0.01298819  0.08018401  0.55051149    -0.74400
O145        O  0.09791201  0.04900252  0.50013138    -0.74000
O146        O  0.30866795  0.03400739  0.46325128    -0.74600
O147        O  0.28845130  0.24165404  0.49973351    -0.74000
O148        O  0.26011341  0.32814426  0.55320670    -0.74800
O149        O  0.30828361  0.27941753  0.46301539    -0.74200
O150        O  0.25733654  0.26949824  0.55172321    -0.74600
O151        O  0.00928128  0.26803824  0.55284758    -0.74500
O152        O  0.06665961  0.32531082  0.55236776    -0.74300
C153        C  0.04898478  0.09553074  0.55724328     0.77500
C154        C  0.29149769  0.05099742  0.47466337     0.78000
C155        C  0.09572586  0.04785041  0.47481379     0.76900
C156        C  0.29075614  0.24502515  0.47438410     0.77300
C157        C  0.24261673  0.29098275  0.55882129     0.78400
C158        C  0.04574969  0.28860720  0.55889499     0.77500
C159        C  0.02290010  0.20389199  0.21971814    -0.26000
C160        C  0.04030731  0.18189700  0.22760341    -0.14000
C161        C  0.03568302  0.14985429  0.21189152     0.36600
C162        C  0.34804248  0.14319157  0.18846184    -0.25400
C163        C  0.32947565  0.16467382  0.18150908    -0.14700
C164        C  0.00171379  0.19493617  0.19597214     0.37700
N165        N  0.98325286  0.21737348  0.18893226    -0.88900
H166        H  0.02683715  0.22894581  0.23154850     0.18800
H167        H  0.34578631  0.11954731  0.17576906     0.18800
N168        N  0.05286673  0.12666589  0.21974547    -0.87900
H169        H  0.00513336  0.24744178  0.18755847     0.36100
H170        H  0.96350748  0.21423183  0.20436359     0.41200
H171        H  0.07160286  0.12784043  0.20418671     0.40900
H172        H  0.36707321  0.09966835  0.21985311     0.35800
C173        C  0.19700643  0.00480130  0.20231755    -0.26000
C174        C  0.16774537  0.00531208  0.18655335    -0.14000
C175        C  0.13152739  0.32243199  0.19731653     0.36600
C176        C  0.12219341  0.30250996  0.22188567    -0.25400
C177        C  0.15004850  0.29717875  0.23555261    -0.14700
C178        C  0.18921640  0.31509070  0.22554479     0.37700
N179        N  0.21987036  0.31319872  0.23968761    -0.88900
H180        H  0.22752604  0.01953893  0.19532188     0.18800
H181        H  0.09201817  0.28865852  0.22950913     0.18800
N182        N  0.10185060  0.32703050  0.18417448    -0.87900
H183        H  0.20935825  0.29877587  0.25809464     0.36100
H184        H  0.24170944  0.34244444  0.24392742     0.41200
H185        H  0.08570830  0.00161275  0.19398674     0.40900
H186        H  0.07739187  0.29870363  0.18118359     0.35800
C187        C  0.15070297  0.13398381  0.20451880    -0.26000
C188        C  0.17175150  0.16235838  0.18419640    -0.14000
C189        C  0.18811669  0.20305438  0.18975382     0.36600
C190        C  0.18080117  0.21440750  0.21451785    -0.25400
C191        C  0.15565148  0.18613279  0.23349273    -0.14700
C192        C  0.14265913  0.14557919  0.22937146     0.37700
N193        N  0.12108158  0.11648169  0.24998903    -0.88900
H194        H  0.14042045  0.10276718  0.20099514     0.18800
H195        H  0.19134287  0.24556878  0.21772111     0.18800
N196        N  0.21059442  0.23300419  0.16992346    -0.87900
H197        H  0.11384277  0.08800430  0.24358116     0.36100
H198        H  0.09441677  0.11571299  0.25376197     0.41200
H199        H  0.23848299  0.25236516  0.17762098     0.40900
H200        H  0.19645601  0.24932748  0.16658616     0.35800
C201        C  0.15415455  0.34489314  0.32568433    -0.26000
C202        C  0.17117348  0.00320743  0.34749921    -0.14000
C203        C  0.18262136  0.30671886  0.34277578     0.36600
C204        C  0.17125270  0.28412510  0.31949517    -0.25400
C205        C  0.15030531  0.29052663  0.29950319    -0.14700
C206        C  0.14349124  0.32259120  0.30204078     0.37700
N207        N  0.12503117  0.33207014  0.28117566    -0.88900
H208        H  0.14815459  0.36913731  0.32768859     0.18800
H209        H  0.17744405  0.26018507  0.31763579     0.18800
N210        N  0.19733122  0.96213534  0.36558986    -0.87900
H211        H  0.14472634  0.36118119  0.27470410     0.36100
H212        H  0.09993006  0.33159652  0.28915088     0.41200
H213        H  0.20126787  0.93840818  0.36007405     0.40900
H214        H  0.17760167  0.95220618  0.38197608     0.35800
C215        C  0.00415428  0.19652926  0.32995471    -0.26000
C216        C  0.32417706  0.16196662  0.34002601    -0.14000
C217        C  0.99096618  0.12906774  0.32274889     0.36600
C218        C  0.01065946  0.14137349  0.29781718    -0.25400
C219        C  0.02992043  0.18140800  0.29015157    -0.14700
C220        C  0.02410009  0.20859689  0.30538706     0.37700
N221        N  0.03964196  0.24921052  0.29704815    -0.88900
H222        H  0.33887330  0.22355556  0.34227678     0.18800
H223        H  0.01479116  0.12055541  0.28571059     0.18800
N224        N  0.30405814  0.09152506  0.33067701    -0.87900
H225        H  0.06135962  0.26718622  0.31055318     0.36100
H226        H  0.05298711  0.25446723  0.27807456     0.41200
H227        H  0.32468320  0.08196099  0.33088570     0.40900
H228        H  0.97646273  0.07116826  0.31570790     0.35800
C229        C  0.18550551  0.20074961  0.30203549    -0.26000
C230        C  0.14512543  0.17852590  0.29659430    -0.14000
C231        C  0.11946880  0.14788600  0.31411925     0.36600
C232        C  0.13364429  0.14169705  0.33781489    -0.25400
C233        C  0.17342187  0.16574284  0.34463075    -0.14700
C234        C  0.20009378  0.19489342  0.32605315     0.37700
N235        N  0.24154107  0.21863789  0.33159283    -0.88900
H236        H  0.20506476  0.22469454  0.28852221     0.18800
H237        H  0.11293435  0.11822747  0.35119101     0.18800
N238        N  0.07840203  0.12380760  0.30838618    -0.87900
H239        H  0.25643102  0.23963280  0.31638387     0.36100
H240        H  0.25324837  0.19965831  0.33139336     0.41200
H241        H  0.06243643  0.12612187  0.32454410     0.40900
H242        H  0.07161339  0.09414952  0.30739771     0.35800
C243        C  0.28020268  0.11266497  0.82748071    -0.26000
C244        C  0.29130546  0.13851118  0.80518354    -0.14000
C245        C  0.32820879  0.17391640  0.80511063     0.36600
C246        C  0.35283400  0.18255612  0.82701240    -0.25400
C247        C  0.01145726  0.15814655  0.84913727    -0.14700
C248        C  0.30394563  0.12192049  0.84987456     0.37700
N249        N  0.96538280  0.09083594  0.86864895    -0.88900
H250        H  0.25205911  0.08534104  0.82804294     0.18800
H251        H  0.04918669  0.21352587  0.82811489     0.18800
N252        N  0.33997914  0.20248276  0.78389745    -0.87900
H253        H  0.26491710  0.09340662  0.88014150     0.36100
H254        H  0.98588620  0.10034220  0.88385764     0.41200
H255        H  0.36676135  0.20706264  0.77576627     0.40900
H256        H  0.34505173  0.22946028  0.79195928     0.35800
C257        C  0.19415979  0.02040505  0.80702036    -0.26000
C258        C  0.17279638  0.03828185  0.79858490    -0.14000
C259        C  0.13883894  0.03141799  0.81315838     0.36600
C260        C  0.12807456  0.00887971  0.83678564    -0.25400
C261        C  0.15158384  0.32828274  0.85065219    -0.14700
C262        C  0.18422151  0.99902260  0.83119340     0.37700
N263        N  0.20715270  0.98203629  0.84004036    -0.88900
H264        H  0.22066004  0.02602510  0.79606749     0.18800
H265        H  0.10171447  0.33751937  0.85263066     0.18800
N266        N  0.11616344  0.04876653  0.80462928    -0.87900
H267        H  0.23648524  0.00502720  0.84169245     0.36100
H268        H  0.20493010  0.29490067  0.82915857     0.41200
H269        H  0.11487386  0.06563947  0.82039993     0.40900
H270        H  0.08727401  0.02560069  0.80134518     0.35800
C271        C  0.15579020  0.14848857  0.80629477    -0.26000
C272        C  0.19501605  0.16596428  0.79743823    -0.14000
C273        C  0.22499868  0.19828125  0.81134107     0.36600
C274        C  0.21559346  0.21100300  0.83506939    -0.25400
C275        C  0.17691421  0.19053824  0.84539787    -0.14700
C276        C  0.14657252  0.15996079  0.83055717     0.37700
N277        N  0.10649458  0.14010579  0.84033138    -0.88900
H278        H  0.13275226  0.12395809  0.79535684     0.18800
H279        H  0.23868721  0.23558592  0.84598869     0.18800
N280        N  0.26529679  0.21657789  0.80215963    -0.87900
H281        H  0.09685195  0.10986424  0.84252821     0.36100
H282        H  0.08910182  0.14307198  0.82589005     0.41200
H283        H  0.27569223  0.24684040  0.79896993     0.40900
H284        H  0.28180568  0.21402787  0.81743049     0.35800
C285        C  0.30946578  0.18337099  0.72694726    -0.26000
C286        C  0.30079263  0.14855230  0.74066116    -0.14000
C287        C  0.31646407  0.12514697  0.73096548     0.36600
C288        C  0.33633281  0.13473812  0.70603526    -0.25400
C289        C  0.00796119  0.16591432  0.68928705    -0.14700
C290        C  0.32937392  0.19318677  0.70231622     0.37700
N291        N  0.00165242  0.22634301  0.68740887    -0.88900
H292        H  0.29823574  0.20177028  0.73472001     0.18800
H293        H  0.01374118  0.11403985  0.69613755     0.18800
N294        N  0.31155576  0.09089691  0.74530760    -0.87900
H295        H  0.35339469  0.25301595  0.70165041     0.36100
H296        H  0.97387121  0.22375776  0.68560889     0.41200
H297        H  0.29671818  0.08744966  0.76359963     0.40900
H298        H  0.33968159  0.09624163  0.74990060     0.35800
C299        C  0.13387417  0.99800137  0.70468121    -0.26000
C300        C  0.15420719  0.32504651  0.68971711    -0.14000
C301        C  0.20319686  0.02120386  0.69440941     0.36600
C302        C  0.21281337  0.04082517  0.71887530    -0.25400
C303        C  0.18404250  0.04151743  0.73550647    -0.14700
C304        C  0.14411936  0.01902525  0.72877412     0.37700
N305        N  0.11412845  0.01859490  0.74578052    -0.88900
H306        H  0.09476530  0.31129818  0.70081967     0.18800
H307        H  0.24348562  0.05848373  0.72401889     0.18800
N308        N  0.22401439  0.34173124  0.68297671    -0.87900
H309        H  0.09460901  0.98909089  0.75154442     0.36100
H310        H  0.09829153  0.02840906  0.73462604     0.41200
H311        H  0.23597959  0.32774762  0.69411070     0.40900
H312        H  0.23484960  0.04025653  0.65987733     0.35800
C313        C  0.19948038  0.20623061  0.70152851    -0.26000
C314        C  0.16567918  0.17739874  0.68819535    -0.14000
C315        C  0.14202713  0.13946033  0.70056942     0.36600
C316        C  0.15525041  0.13010362  0.72361921    -0.25400
C317        C  0.19073005  0.15786773  0.73532102    -0.14700
C318        C  0.21194771  0.19676014  0.72505212     0.37700
N319        N  0.24633256  0.22655275  0.73822042    -0.88900
H320        H  0.21688732  0.23618124  0.69347270     0.18800
H321        H  0.13840890  0.10030719  0.73195764     0.18800
N322        N  0.10436809  0.10994884  0.69068891    -0.87900
H323        H  0.26972623  0.23897504  0.72425647     0.36100
H324        H  0.24084855  0.24915953  0.74412504     0.41200
H325        H  0.10825971  0.10095869  0.67178440     0.40900
H326        H  0.08604463  0.12228466  0.68959594     0.35800
Zn327      Zn  0.08504190  0.50409054  0.62874444     1.49700
Zn328      Zn  0.08296061  0.58449029  0.62927587     1.49400
Zn329      Zn  0.16504848  0.58724517  0.62763753     1.49100
Zn330      Zn  0.11061005  0.55813366  0.57557964     1.49500
O331        O  0.11083264  0.55846218  0.61468309    -1.83800
O332        O  0.04444909  0.49509274  0.65693998    -0.74400
O333        O  0.11561934  0.62583600  0.65629397    -0.74200
O334        O  0.17574873  0.55463183  0.65284984    -0.73800
O335        O  0.03854913  0.54853379  0.65367563    -0.74400
O336        O  0.12128340  0.49578922  0.65120884    -0.74000
O337        O  0.17422431  0.63078882  0.65239702    -0.74600
O338        O  0.16908832  0.58711924  0.56124685    -0.74000
O339        O  0.06356301  0.60618621  0.60030982    -0.74800
O340        O  0.20529609  0.60687119  0.59802322    -0.74200
O341        O  0.08113845  0.58705691  0.56292690    -0.74600
O342        O  0.08107499  0.49941588  0.56254060    -0.74500
O343        O  0.06305409  0.46261549  0.59985979    -0.74300
C344        C  0.03036882  0.51629809  0.66545031     0.77500
C345        C  0.15073262  0.63951891  0.66427450     0.78000
C346        C  0.15468500  0.51904370  0.66113897     0.76900
C347        C  0.20265255  0.60441589  0.57277357     0.77300
C348        C  0.06456537  0.60420363  0.57492813     0.78400
C349        C  0.06422109  0.46547985  0.57449661     0.77500
C350        C  0.21542569  0.44460921  0.79432897     0.45800
H351        H  0.21340114  0.44578060  0.81646903    -0.03200
C352        C  0.21914121  0.44167033  0.74307338     0.45900
H353        H  0.22087442  0.44045381  0.72089971    -0.03200
C354        C  0.25738035  0.45832879  0.78352242    -0.16900
C355        C  0.18938435  0.40268634  0.78311544    -0.16700
C356        C  0.20278709  0.47109262  0.78009073    -0.17000
C357        C  0.25924261  0.45742146  0.75608999    -0.17000
C358        C  0.19201462  0.40109872  0.75598525    -0.16600
C359        C  0.20357330  0.46852949  0.75286297    -0.16900
Zn360      Zn  0.14134040  0.52842083  0.92654377     1.49700
Zn361      Zn  0.11281675  0.56168534  0.88385778     1.49400
Zn362      Zn  0.05802538  0.52772936  0.93016014     1.49100
Zn363      Zn  0.14300515  0.61236620  0.92904498     1.49500
O364        O  0.11338030  0.55634540  0.92082700    -1.83800
O365        O  0.15421466  0.51410643  0.88983403    -0.74400
O366        O  0.06863586  0.51755025  0.86684957    -0.74200
O367        O  0.04735458  0.47815620  0.95138247    -0.73800
O368        O  0.15998003  0.56552930  0.86680636    -0.74400
O369        O  0.10408583  0.47724706  0.94785434    -0.74000
O370        O  0.02342162  0.51069816  0.89679297    -0.74600
O371        O  0.10422321  0.62532371  0.94823330    -0.74000
O372        O  0.10858349  0.60798579  0.87406128    -0.74800
O373        O  0.04727822  0.56669310  0.95043659    -0.74200
O374        O  0.16417691  0.64568819  0.89459631    -0.74600
O375        O  0.19069281  0.62263054  0.95065845    -0.74500
O376        O  0.19262474  0.56624118  0.94634080    -0.74300
C377        C  0.16328572  0.53487310  0.86838493     0.77500
C378        C  0.03334954  0.50717856  0.87298659     0.78000
C379        C  0.06800063  0.46171949  0.95591126     0.76900
C380        C  0.06760637  0.60407164  0.95502227     0.77300
C381        C  0.14192921  0.63921302  0.87476078     0.78400
C382        C  0.20743738  0.60212788  0.95458612     0.77500
Zn383      Zn  0.25068979  0.41712990  0.40505737     1.49700
Zn384      Zn  0.22406980  0.44574856  0.45755837     1.49400
Zn385      Zn  0.25153973  0.50034124  0.40441257     1.49100
Zn386      Zn  0.17050298  0.41759591  0.40473627     1.49500
O387        O  0.22420436  0.44533984  0.41853471    -1.83800
O388        O  0.27421815  0.39993300  0.43399077    -0.74400
O389        O  0.25339889  0.50485605  0.47042206    -0.74200
O390        O  0.29265537  0.50783478  0.37719669    -0.73800
O391        O  0.25395990  0.41707839  0.47093597    -0.74400
O392        O  0.29083173  0.45003624  0.37763436    -0.74000
O393        O  0.27357522  0.54220375  0.43338869    -0.74600
O394        O  0.16209703  0.45186475  0.37979614    -0.74000
O395        O  0.16505609  0.41656798  0.47097722    -0.74800
O396        O  0.21727236  0.51038571  0.38033087    -0.74200
O397        O  0.12894629  0.39709676  0.43413303    -0.74600
O398        O  0.16250548  0.37527097  0.37870808    -0.74500
O399        O  0.21665469  0.37108826  0.38157440    -0.74300
C400        C  0.27232559  0.40134729  0.45934713     0.77500
C401        C  0.27126974  0.53912112  0.45878769     0.78000
C402        C  0.30231935  0.48382773  0.36709224     0.76900
C403        C  0.18376206  0.48685286  0.37053946     0.77300
C404        C  0.13138786  0.39936322  0.45947743     0.78400
C405        C  0.18397569  0.36128484  0.37069308     0.77500
C406        C  0.10524337  0.55074820  0.28950136     0.45800
H407        H  0.10023393  0.54817557  0.31153003    -0.03200
C408        C  0.11608534  0.55628190  0.23843341     0.45900
H409        H  0.12031580  0.55885610  0.21634118    -0.03200
C410        C  0.06680909  0.53187996  0.27377645    -0.16900
C411        C  0.12902255  0.59403296  0.27949738    -0.16700
C412        C  0.12826627  0.53096032  0.27917897    -0.17000
C413        C  0.07259381  0.53364880  0.24676510    -0.17000
C414        C  0.13362319  0.59667848  0.25223263    -0.16600
C415        C  0.13486963  0.53476480  0.25209981    -0.16900
Zn416      Zn  0.24904581  0.49634962  0.12380997     1.49700
Zn417      Zn  0.24993650  0.41588622  0.12443916     1.49400
Zn418      Zn  0.16764747  0.41369118  0.12556764     1.49100
Zn419      Zn  0.22168143  0.44139014  0.07162272     1.49500
O420        O  0.22192497  0.44167732  0.11071998    -1.83800
O421        O  0.29313871  0.50758546  0.14801601    -0.74400
O422        O  0.21710736  0.37476715  0.15181063    -0.74200
O423        O  0.16040646  0.44651871  0.15373339    -0.73800
O424        O  0.29449458  0.45148867  0.14761608    -0.74400
O425        O  0.21580393  0.50478517  0.14987628    -0.74000
O426        O  0.15782898  0.36817972  0.14894438    -0.74600
O427        O  0.16285557  0.41085261  0.05923445    -0.74000
O428        O  0.26946370  0.39433236  0.09520987    -0.74800
O429        O  0.12621189  0.39501225  0.09679447    -0.74200
O430        O  0.25207856  0.41311253  0.05815474    -0.74600
O431        O  0.25032985  0.50035332  0.05771405    -0.74500
O432        O  0.26813050  0.53722105  0.09458276    -0.74300
C433        C  0.30592763  0.48584855  0.15705152     0.77500
C434        C  0.18171065  0.36015572  0.16034054     0.78000
C435        C  0.18320467  0.48178207  0.16175571     0.76900
C436        C  0.12906029  0.39519158  0.07137608     0.77300
C437        C  0.26878044  0.39626095  0.06988062     0.78400
C438        C  0.26677542  0.53431936  0.06930104     0.77500
Zn439      Zn  0.02689845  0.63836915  0.02513019     1.49700
Zn440      Zn  0.27796732  0.63760625  0.02592070     1.49400
Zn441      Zn  0.02862133  0.38603675  0.02689482     1.46500
Zn442      Zn  0.00235961  0.33222704  0.97300648     1.49500
O443        O  0.00084244  0.33116504  0.01270564    -1.83800
O444        O  0.32207730  0.58774034  0.04709682    -0.74400
O445        O  0.26797629  0.34180041  0.04785239    -0.74200
O446        O  0.07655813  0.39750124  0.04954592    -0.73800
O447        O  0.26516598  0.58774927  0.04750470    -0.74400
O448        O  0.07643821  0.34025688  0.04903413    -0.74000
O449        O  0.32470308  0.39983776  0.04771704    -0.74600
O450        O  0.03275309  0.39068646  0.95954234    -0.74000
O451        O  0.24020260  0.61804744  0.99551450    -0.74800
O452        O  0.05027197  0.42641294  0.99683240    -0.74200
O453        O  0.27788632  0.63774681  0.95856481    -0.74600
O454        O  0.03121172  0.63819371  0.95772858    -0.74500
O455        O  0.04886203  0.62105130  0.99523882    -0.74300
C456        C  0.28547005  0.57159982  0.05350801     0.77500
C457        C  0.28807112  0.37848524  0.05409769     0.78000
C458        C  0.09217239  0.37672252  0.05580259     0.76900
C459        C  0.04965514  0.42423189  0.97148884     0.77300
C460        C  0.24386936  0.62003324  0.97023158     0.78400
C461        C  0.04846800  0.62246389  0.96995466     0.77500
Zn462      Zn  0.05547169  0.36322502  0.53098430     1.49700
Zn463      Zn  0.30968043  0.36551842  0.53083323     1.49400
Zn464      Zn  0.00381129  0.67087345  0.47739434     1.49100
Zn465      Zn  0.30588023  0.61275943  0.53067086     1.49500
O466        O  0.00226974  0.66972665  0.51699087    -1.83800
O467        O  0.06636894  0.41209912  0.55292893    -0.74400
O468        O  0.28991740  0.38537208  0.50081176    -0.74200
O469        O  0.06064447  0.36448785  0.46415784    -0.73800
O470        O  0.00998631  0.41304479  0.55192284    -0.74400
O471        O  0.09629676  0.38357782  0.50101617    -0.74000
O472        O  0.30874541  0.36707942  0.46382583    -0.74600
O473        O  0.28762412  0.57291826  0.50039049    -0.74000
O474        O  0.25678178  0.65937815  0.55102805    -0.74800
O475        O  0.30626300  0.61042894  0.46355398    -0.74200
O476        O  0.25543005  0.60131877  0.55107626    -0.74600
O477        O  0.01035114  0.60168374  0.55229592    -0.74500
O478        O  0.06716408  0.65951948  0.55304883    -0.74300
C479        C  0.04594606  0.42839817  0.55884025     0.77500
C480        C  0.29148345  0.38382160  0.47546489     0.78000
C481        C  0.09415011  0.38156294  0.47570244     0.76900
C482        C  0.28943901  0.57612282  0.47503364     0.77300
C483        C  0.23987609  0.62244152  0.55705022     0.78400
C484        C  0.04638905  0.62268706  0.55921387     0.77500
C485        C  0.01862180  0.53402586  0.22171270    -0.26000
C486        C  0.04211715  0.51701837  0.22618348    -0.14000
C487        C  0.04216013  0.48973751  0.20768272     0.36600
C488        C  0.34857977  0.47612016  0.18846324    -0.25400
C489        C  0.33128137  0.49852568  0.18081321    -0.14700
C490        C  0.99585562  0.52481596  0.19866406     0.37700
N491        N  0.97155445  0.54219897  0.19486825    -0.88900
H492        H  0.01898571  0.55558405  0.23559568     0.18800
H493        H  0.34612265  0.45218342  0.17599363     0.18800
N494        N  0.06595922  0.47196404  0.21178940    -0.87900
H495        H  0.98981437  0.57319403  0.19481769     0.36100
H496        H  0.95187670  0.53420401  0.21117090     0.41200
H497        H  0.08517962  0.47908855  0.19530642     0.40900
H498        H  0.36600051  0.43180455  0.22033681     0.35800
C499        C  0.19837617  0.33409719  0.20053717    -0.26000
C500        C  0.16961409  0.33700159  0.18572528    -0.14000
C501        C  0.12817232  0.65306159  0.19567974     0.36600
C502        C  0.11991087  0.63503630  0.22091791    -0.25400
C503        C  0.14885383  0.63209263  0.23509506    -0.14700
C504        C  0.18791224  0.65063807  0.22484549     0.37700
N505        N  0.21936431  0.65048732  0.23912823    -0.88900
H506        H  0.22837739  0.34677543  0.19277075     0.18800
H507        H  0.08963207  0.62005203  0.22848351     0.18800
N508        N  0.09702752  0.65367590  0.18149765    -0.87900
H509        H  0.20944072  0.63693569  0.25787405     0.36100
H510        H  0.24069117  0.68013116  0.24272158     0.41200
H511        H  0.09304130  0.34262109  0.19689912     0.40900
H512        H  0.07399558  0.62426946  0.17936362     0.35800
C513        C  0.15303769  0.46810935  0.20763211    -0.26000
C514        C  0.17388026  0.49558712  0.18681347    -0.14000
C515        C  0.18953912  0.53647371  0.19144431     0.36600
C516        C  0.18244000  0.54891576  0.21592373    -0.25400
C517        C  0.15727674  0.52140270  0.23529667    -0.14700
C518        C  0.14431656  0.48066411  0.23193932     0.37700
N519        N  0.12100821  0.45214780  0.25244764    -0.88900
H520        H  0.14279473  0.43677935  0.20471147     0.18800
H521        H  0.19277353  0.58023670  0.21844420     0.18800
N522        N  0.21063337  0.56543440  0.17079095    -0.87900
H523        H  0.11432694  0.42358582  0.24686598     0.36100
H524        H  0.09400569  0.45149294  0.25437165     0.41200
H525        H  0.23856940  0.58598058  0.17787658     0.40900
H526        H  0.19546093  0.58063943  0.16707420     0.35800
C527        C  0.15220187  0.68030237  0.32566358    -0.26000
C528        C  0.17249219  0.33630610  0.34655174    -0.14000
C529        C  0.18220785  0.64308074  0.34217065     0.36600
C530        C  0.17069961  0.62059589  0.31880660    -0.25400
C531        C  0.14881310  0.62634904  0.29923878    -0.14700
C532        C  0.14102885  0.65773308  0.30212272     0.37700
N533        N  0.12149053  0.66650032  0.28160482    -0.88900
H534        H  0.14572703  0.70419769  0.32788973     0.18800
H535        H  0.17742130  0.59708361  0.31640941     0.18800
N536        N  0.20320222  0.29849770  0.36285554    -0.87900
H537        H  0.14076285  0.69552198  0.27476055     0.36100
H538        H  0.09674127  0.66620098  0.29006553     0.41200
H539        H  0.22939887  0.30221194  0.35422012     0.40900
H540        H  0.18572874  0.26864100  0.36868153     0.35800
C541        C  0.00255767  0.53218505  0.32748030    -0.26000
C542        C  0.32415984  0.49399695  0.34113093    -0.14000
C543        C  0.98848463  0.46442803  0.32055493     0.36600
C544        C  0.00939508  0.47659078  0.29604118    -0.25400
C545        C  0.02907236  0.51662090  0.28832668    -0.14700
C546        C  0.02261758  0.54386222  0.30297701     0.37700
N547        N  0.03804324  0.58429374  0.29432834    -0.88900
H548        H  0.33502221  0.55440562  0.34150516     0.18800
H549        H  0.01351601  0.45555263  0.28418325     0.18800
N550        N  0.30985045  0.42446263  0.33432108    -0.87900
H551        H  0.05892763  0.60242961  0.30820824     0.36100
H552        H  0.05239817  0.58959464  0.27570493     0.41200
H553        H  0.32730164  0.42449217  0.34990174     0.40900
H554        H  0.93864470  0.41242484  0.32878215     0.35800
C555        C  0.18415922  0.53523472  0.30427884    -0.26000
C556        C  0.14386247  0.51411732  0.29853340    -0.14000
C557        C  0.11743294  0.48325553  0.31571321     0.36600
C558        C  0.13096226  0.47558148  0.33926608    -0.25400
C559        C  0.17082682  0.49834473  0.34622981    -0.14700
C560        C  0.19808844  0.52777455  0.32802764     0.37700
N561        N  0.23964233  0.54990180  0.33354838    -0.88900
H562        H  0.20437390  0.55919645  0.29101015     0.18800
H563        H  0.10984574  0.45185949  0.35232093     0.18800
N564        N  0.07645674  0.45995795  0.30951075    -0.87900
H565        H  0.25512544  0.57126480  0.31863376     0.36100
H566        H  0.25018947  0.52996627  0.33274427     0.41200
H567        H  0.06023211  0.46193953  0.32562942     0.40900
H568        H  0.06924125  0.43020204  0.30799345     0.35800
C569        C  0.28069894  0.44300785  0.82472615    -0.26000
C570        C  0.28940122  0.46898379  0.80281021    -0.14000
C571        C  0.32422893  0.50640621  0.80289300     0.36600
C572        C  0.34841337  0.51756594  0.82529158    -0.25400
C573        C  0.00573037  0.49545969  0.85091889    -0.14700
C574        C  0.30437559  0.45423494  0.84714518     0.37700
N575        N  0.95665749  0.43182814  0.87267332    -0.88900
H576        H  0.25428886  0.41419151  0.82502468     0.18800
H577        H  0.04495748  0.54945209  0.82895019     0.18800
N578        N  0.33437881  0.53379512  0.78106174    -0.87900
H579        H  0.28936512  0.43882336  0.88597199     0.36100
H580        H  0.97837083  0.42443598  0.87649376     0.41200
H581        H  0.36202780  0.54021787  0.77341015     0.40900
H582        H  0.33726197  0.56030282  0.78840588     0.35800
C583        C  0.19132881  0.35114996  0.80985388    -0.26000
C584        C  0.16974524  0.36879566  0.80161158    -0.14000
C585        C  0.13673033  0.36308795  0.81679830     0.36600
C586        C  0.12735462  0.34212837  0.84101760    -0.25400
C587        C  0.15552298  0.66438159  0.85087514    -0.14700
C588        C  0.18305366  0.33166931  0.83461600     0.37700
N589        N  0.20659980  0.31536105  0.84342021    -0.88900
H590        H  0.21682758  0.35553494  0.79815149     0.18800
H591        H  0.10587567  0.67405323  0.85176848     0.18800
N592        N  0.11330672  0.37944463  0.80802057    -0.87900
H593        H  0.23601400  0.33849501  0.84407048     0.36100
H594        H  0.21112637  0.63248835  0.83149920     0.41200
H595        H  0.11259140  0.39724959  0.82335314     0.40900
H596        H  0.08436678  0.35586921  0.80561675     0.35800
C597        C  0.15218948  0.47769887  0.80540918    -0.26000
C598        C  0.19145088  0.49535798  0.79632136    -0.14000
C599        C  0.22119152  0.52832453  0.80996741     0.36600
C600        C  0.21165609  0.54157124  0.83342339    -0.25400
C601        C  0.17310793  0.52113117  0.84390065    -0.14700
C602        C  0.14287138  0.48990721  0.82943498     0.37700
N603        N  0.10281621  0.47041390  0.83933360    -0.88900
H604        H  0.12922600  0.45264766  0.79480601     0.18800
H605        H  0.23463122  0.56669506  0.84403112     0.18800
N606        N  0.26148694  0.54699257  0.80080171    -0.87900
H607        H  0.09315220  0.44025040  0.84220335     0.36100
H608        H  0.08529705  0.47277410  0.82475142     0.41200
H609        H  0.27135645  0.57708158  0.79721208     0.40900
H610        H  0.27818053  0.54531108  0.81628136     0.35800
C611        C  0.29917856  0.50779328  0.72322516    -0.26000
C612        C  0.29421677  0.47508198  0.73808475    -0.14000
C613        C  0.31244887  0.45367504  0.72898233     0.36600
C614        C  0.33411645  0.46498112  0.70467665    -0.25400
C615        C  0.00746619  0.50540757  0.69110626    -0.14700
C616        C  0.31948653  0.51822928  0.69875566     0.37700
N617        N  0.00405311  0.56754726  0.69079711    -0.88900
H618        H  0.28427537  0.52358358  0.72969564     0.18800
H619        H  0.01096271  0.45200342  0.69696530     0.18800
N620        N  0.30856638  0.41981553  0.74329824    -0.87900
H621        H  0.33370785  0.57576762  0.69511214     0.36100
H622        H  0.97708220  0.56652792  0.68832742     0.41200
H623        H  0.29226639  0.41484428  0.76104560     0.40900
H624        H  0.33690882  0.42662350  0.74882985     0.35800
C625        C  0.12537336  0.32570872  0.70673907    -0.26000
C626        C  0.16314532  0.66252816  0.68948700    -0.14000
C627        C  0.19345658  0.34234106  0.69880593     0.36600
C628        C  0.20329117  0.36150319  0.72337711    -0.25400
C629        C  0.17561228  0.36571854  0.73885100    -0.14700
C630        C  0.13594285  0.34629955  0.73110902     0.37700
N631        N  0.10682722  0.34901428  0.74724917    -0.88900
H632        H  0.10399378  0.64996162  0.69984017     0.18800
H633        H  0.23388807  0.37652394  0.72923281     0.18800
N634        N  0.23206149  0.67617496  0.68378715    -0.87900
H635        H  0.08495113  0.32005050  0.75271632     0.36100
H636        H  0.09358511  0.36115464  0.73561545     0.41200
H637        H  0.24259346  0.66122890  0.69534084     0.40900
H638        H  0.24636034  0.37119703  0.67933684     0.35800
C639        C  0.19292358  0.53485478  0.70296196    -0.26000
C640        C  0.16709665  0.50589211  0.68483495    -0.14000
C641        C  0.15035250  0.46512826  0.69152028     0.36600
C642        C  0.15972194  0.45455541  0.71555084    -0.25400
C643        C  0.18650377  0.48317223  0.73306696    -0.14700
C644        C  0.20298607  0.52372483  0.72692218     0.37700
N645        N  0.23080062  0.55348925  0.74435082    -0.88900
H646        H  0.20539449  0.56629010  0.69859037     0.18800
H647        H  0.14767711  0.42325321  0.71983840     0.18800
N648        N  0.12519695  0.43356752  0.67399507    -0.87900
H649        H  0.25715287  0.57099061  0.73351952     0.36100
H650        H  0.21959952  0.57177671  0.75019607     0.41200
H651        H  0.13924013  0.43848828  0.65528827     0.40900
H652        H  0.09830068  0.43286485  0.67225134     0.35800
Zn653      Zn  0.08611684  0.83695781  0.62957439     1.49700
Zn654      Zn  0.08261816  0.91672465  0.62955908     1.49400
Zn655      Zn  0.16566765  0.92073698  0.62831340     1.49100
Zn656      Zn  0.11167479  0.89148021  0.57626212     1.49500
O657        O  0.11143927  0.89145155  0.61537784    -1.83800
O658        O  0.04406529  0.82637240  0.65696776    -0.74400
O659        O  0.11561539  0.96047281  0.65471742    -0.74200
O660        O  0.17648276  0.88884582  0.65417124    -0.73800
O661        O  0.04027043  0.88115217  0.65544941    -0.74400
O662        O  0.12243932  0.82960713  0.65291440    -0.74000
O663        O  0.17409071  0.96473837  0.65220567    -0.74600
O664        O  0.17012592  0.92049856  0.56195772    -0.74000
O665        O  0.06144201  0.93646431  0.60043429    -0.74800
O666        O  0.20631778  0.94046037  0.59870359    -0.74200
O667        O  0.08255472  0.92056830  0.56324749    -0.74600
O668        O  0.08215908  0.83286173  0.56328006    -0.74500
O669        O  0.06521516  0.79576176  0.60046044    -0.74300
C670        C  0.03078092  0.84788163  0.66621779     0.77500
C671        C  0.15071566  0.97469965  0.66280427     0.78000
C672        C  0.15585647  0.85333029  0.66271388     0.76900
C673        C  0.20370773  0.93798478  0.57343620     0.77300
C674        C  0.06426142  0.93609097  0.57505752     0.78400
C675        C  0.06587337  0.79886048  0.57511559     0.77500
C676        C  0.22044460  0.78059342  0.79502594     0.45800
H677        H  0.21643637  0.78154339  0.81700641    -0.03200
C678        C  0.22794929  0.77823920  0.74398821     0.45900
H679        H  0.23136914  0.77744436  0.72190746    -0.03200
C680        C  0.26315003  0.79472623  0.78596890    -0.16900
C681        C  0.19567425  0.73879844  0.78339869    -0.16700
C682        C  0.20879507  0.80703444  0.77978828    -0.17000
C683        C  0.26693942  0.79415165  0.75863713    -0.17000
C684        C  0.20034545  0.73745963  0.75640550    -0.16600
C685        C  0.21130764  0.80464779  0.75264465    -0.16900
Zn686      Zn  0.14092938  0.86193511  0.92471265     1.49700
Zn687      Zn  0.11257215  0.89339405  0.88187682     1.49400
Zn688      Zn  0.05781697  0.86207226  0.92784366     1.49100
Zn689      Zn  0.14239286  0.94630279  0.92661663     1.49500
O690        O  0.11339310  0.89027942  0.91901662    -1.83800
O691        O  0.15495732  0.84804912  0.88779628    -0.74400
O692        O  0.06990877  0.84621667  0.86630611    -0.74200
O693        O  0.04585373  0.81205914  0.94865706    -0.73800
O694        O  0.16032011  0.89922280  0.86484878    -0.74400
O695        O  0.10215620  0.81030092  0.94528931    -0.74000
O696        O  0.02480580  0.84496684  0.89404606    -0.74600
O697        O  0.10356959  0.95863218  0.94691993    -0.74000
O698        O  0.10616068  0.93761857  0.87025405    -0.74800
O699        O  0.04626913  0.90037285  0.94849590    -0.74200
O700        O  0.16101128  0.97802764  0.89101364    -0.74600
O701        O  0.19089716  0.95697756  0.94814399    -0.74500
O702        O  0.19152841  0.89968135  0.94570679    -0.74300
C703        C  0.16399824  0.86883144  0.86632896     0.77500
C704        C  0.03492842  0.83797167  0.87125471     0.78000
C705        C  0.06596193  0.79505423  0.95309784     0.76900
C706        C  0.06694358  0.93749680  0.95381023     0.77300
C707        C  0.13882831  0.96975502  0.87082737     0.78400
C708        C  0.20684678  0.93599397  0.95331450     0.77500
Zn709      Zn  0.25202587  0.75262133  0.40431266     1.49700
Zn710      Zn  0.22589940  0.78120580  0.45720447     1.49400
Zn711      Zn  0.25426983  0.83639725  0.40420146     1.49100
Zn712      Zn  0.17247307  0.75461374  0.40481564     1.49500
O713        O  0.22628415  0.78132004  0.41822765    -1.83800
O714        O  0.27411582  0.73339341  0.43312475    -0.74400
O715        O  0.25510870  0.84029273  0.47009603    -0.74200
O716        O  0.29664719  0.84460910  0.37820552    -0.73800
O717        O  0.25509840  0.75170765  0.47013646    -0.74400
O718        O  0.29255227  0.78569122  0.37690876    -0.74000
O719        O  0.27474724  0.87793296  0.43315947    -0.74600
O720        O  0.16450659  0.78965308  0.38057321    -0.74000
O721        O  0.16701191  0.75174968  0.47094896    -0.74800
O722        O  0.22148446  0.84641521  0.37871927    -0.74200
O723        O  0.13089526  0.73348448  0.43416669    -0.74600
O724        O  0.16338173  0.71253029  0.37831678    -0.74500
O725        O  0.21709489  0.70749884  0.38052843    -0.74300
C726        C  0.27233976  0.73485340  0.45849857     0.77500
C727        C  0.27249358  0.87462449  0.45852677     0.78000
C728        C  0.30489956  0.82016789  0.36715699     0.76900
C729        C  0.18709424  0.82353581  0.36998972     0.77300
C730        C  0.13331749  0.73488679  0.45950782     0.78400
C731        C  0.18426742  0.69805100  0.37000068     0.77500
C732        C  0.10514849  0.88233016  0.29006864     0.45800
H733        H  0.10069531  0.87926549  0.31213433    -0.03200
C734        C  0.11448945  0.88882825  0.23892505     0.45900
H735        H  0.11826999  0.89171723  0.21680943    -0.03200
C736        C  0.06619846  0.86370344  0.27497587    -0.16900
C737        C  0.12880600  0.92576336  0.28042670    -0.16700
C738        C  0.12797216  0.86294612  0.27886109    -0.17000
C739        C  0.07115916  0.86609387  0.24783775    -0.17000
C740        C  0.13247900  0.92900212  0.25308420    -0.16600
C741        C  0.13362885  0.86710009  0.25178563    -0.16900
Zn742      Zn  0.24598965  0.82960609  0.12273582     1.49700
Zn743      Zn  0.24702851  0.74937337  0.12392789     1.49400
Zn744      Zn  0.16453140  0.74697711  0.12441612     1.49100
Zn745      Zn  0.21922847  0.77459302  0.07067938     1.49500
O746        O  0.21892105  0.77477513  0.10981769    -1.83800
O747        O  0.28981596  0.84181551  0.14736554    -0.74400
O748        O  0.21324805  0.70629213  0.14990100    -0.74200
O749        O  0.15738344  0.78039943  0.15203217    -0.73800
O750        O  0.28998110  0.78516503  0.14853898    -0.74400
O751        O  0.21261807  0.83870324  0.14797233    -0.74000
O752        O  0.15470916  0.70186985  0.14845789    -0.74600
O753        O  0.16075970  0.74580698  0.05798559    -0.74000
O754        O  0.26831136  0.72933018  0.09472325    -0.74800
O755        O  0.12351690  0.72854636  0.09533864    -0.74200
O756        O  0.24829959  0.74479167  0.05744581    -0.74600
O757        O  0.24922762  0.83351995  0.05673834    -0.74500
O758        O  0.26589300  0.87016306  0.09367343    -0.74300
C759        C  0.30202673  0.82009308  0.15722890     0.77500
C760        C  0.17818825  0.69244008  0.15895594     0.78000
C761        C  0.18016442  0.81572948  0.15995290     0.76900
C762        C  0.12682444  0.72985097  0.06991825     0.77300
C763        C  0.26623767  0.72938972  0.06938845     0.78400
C764        C  0.26545145  0.86739456  0.06842518     0.77500
Zn765      Zn  0.02882415  0.97269663  0.02532280     1.49700
Zn766      Zn  0.27700204  0.97088638  0.02549922     1.49400
Zn767      Zn  0.02706159  0.72068353  0.02460624     1.46500
Zn768      Zn  0.00066044  0.66561575  0.97127125     1.49500
O769        O  0.99959913  0.66544152  0.01106442    -1.83800
O770        O  0.32144901  0.92145841  0.04734586    -0.74400
O771        O  0.26488076  0.67477940  0.04696845    -0.74200
O772        O  0.07520645  0.73268778  0.04717381    -0.73800
O773        O  0.26421455  0.92073536  0.04649902    -0.74400
O774        O  0.07447960  0.67510693  0.04766744    -0.74000
O775        O  0.32242071  0.73177200  0.04848116    -0.74600
O776        O  0.03000999  0.72391045  0.95706543    -0.74000
O777        O  0.23892924  0.95163465  0.99482998    -0.74800
O778        O  0.04807654  0.76022953  0.99410160    -0.74200
O779        O  0.27741298  0.97168273  0.95829834    -0.74600
O780        O  0.03111236  0.97209580  0.95800111    -0.74500
O781        O  0.04942744  0.95427140  0.99485544    -0.74300
C782        C  0.28454511  0.90480579  0.05289950     0.77500
C783        C  0.28540670  0.71115337  0.05388329     0.78000
C784        C  0.09032259  0.71168971  0.05406365     0.76900
C785        C  0.04716083  0.75765890  0.96878303     0.77300
C786        C  0.24304965  0.95389859  0.96953616     0.78400
C787        C  0.04829950  0.95580865  0.96958073     0.77500
Zn788      Zn  0.05693570  0.69724495  0.53096434     1.49700
Zn789      Zn  0.30706953  0.69728659  0.53019387     1.49400
Zn790      Zn  0.00380054  0.00179391  0.47684928     1.49100
Zn791      Zn  0.30696312  0.94707183  0.53063657     1.49500
O792        O  0.00269794  0.00164464  0.51644173    -1.83800
O793        O  0.06809126  0.74603008  0.55290153    -0.74400
O794        O  0.28887063  0.71815310  0.50001155    -0.74200
O795        O  0.06254294  0.70034591  0.46415679    -0.73800
O796        O  0.01147799  0.74654343  0.55260295    -0.74400
O797        O  0.09808840  0.71736614  0.50108517    -0.74000
O798        O  0.30669976  0.69841673  0.46330214    -0.74600
O799        O  0.28844292  0.90799173  0.50014192    -0.74000
O800        O  0.25731145  0.99299747  0.55117693    -0.74800
O801        O  0.30756688  0.94582686  0.46339447    -0.74200
O802        O  0.25673921  0.93535913  0.55159009    -0.74600
O803        O  0.01007056  0.93395079  0.55263355    -0.74500
O804        O  0.06748528  0.99127498  0.55240274    -0.74300
C805        C  0.04755171  0.76199466  0.55928167     0.77500
C806        C  0.29035615  0.71623393  0.47470664     0.78000
C807        C  0.09602851  0.71655850  0.47574573     0.76900
C808        C  0.29046176  0.91145905  0.47481134     0.77300
C809        C  0.24088810  0.95621415  0.55755761     0.78400
C810        C  0.04632112  0.95466398  0.55913772     0.77500
C811        C  0.01842916  0.86857703  0.22246179    -0.26000
C812        C  0.04029526  0.84991340  0.22744756    -0.14000
C813        C  0.03971769  0.82238347  0.20891413     0.36600
C814        C  0.34532808  0.81173400  0.18878022    -0.25400
C815        C  0.32822087  0.83403810  0.18062710    -0.14700
C816        C  0.99682767  0.86075303  0.19888467     0.37700
N817        N  0.97424417  0.87988799  0.19457218    -0.88900
H818        H  0.01934381  0.89043049  0.23633149     0.18800
H819        H  0.34158413  0.78656121  0.17714733     0.18800
N820        N  0.06167967  0.80280242  0.21343665    -0.87900
H821        H  0.99351572  0.91069644  0.19499481     0.36100
H822        H  0.95385683  0.87220637  0.21042452     0.41200
H823        H  0.08120207  0.80933599  0.19718446     0.40900
H824        H  0.36351422  0.76917001  0.22156710     0.35800
C825        C  0.19621136  0.66848430  0.19948042    -0.26000
C826        C  0.16656318  0.66921142  0.18430726    -0.14000
C827        C  0.12868332  0.98762629  0.19698544     0.36600
C828        C  0.11941869  0.96803837  0.22172367    -0.25400
C829        C  0.14796996  0.96485797  0.23625307    -0.14700
C830        C  0.18760010  0.98488359  0.22702057     0.37700
N831        N  0.21854529  0.98394680  0.24144282    -0.88900
H832        H  0.22631476  0.68211490  0.19175071     0.18800
H833        H  0.08878625  0.95211686  0.22855300     0.18800
N834        N  0.09784851  0.98799832  0.18224206    -0.87900
H835        H  0.20782836  0.96838953  0.25950601     0.36100
H836        H  0.23916633  0.01324811  0.24642899     0.41200
H837        H  0.08639832  0.66876127  0.19314499     0.40900
H838        H  0.07570713  0.95848664  0.17909459     0.35800
C839        C  0.14859632  0.80097868  0.20526916    -0.26000
C840        C  0.17126618  0.82928904  0.18528389    -0.14000
C841        C  0.18944595  0.87014952  0.19131515     0.36600
C842        C  0.18174538  0.88178129  0.21593425    -0.25400
C843        C  0.15532054  0.85366885  0.23450384    -0.14700
C844        C  0.14068491  0.81285979  0.23007409     0.37700
N845        N  0.11676605  0.78372362  0.25014265    -0.88900
H846        H  0.13668118  0.76954938  0.20145343     0.18800
H847        H  0.19343994  0.91318865  0.21944811     0.18800
N848        N  0.21442853  0.90010971  0.17215501    -0.87900
H849        H  0.10806643  0.75499182  0.24347706     0.36100
H850        H  0.09088808  0.78477964  0.25334954     0.41200
H851        H  0.24212772  0.91777368  0.18065203     0.40900
H852        H  0.20230581  0.91819981  0.16845647     0.35800
C853        C  0.15391515  0.01262294  0.32636646    -0.26000
C854        C  0.17175526  0.67248781  0.34611439    -0.14000
C855        C  0.17925393  0.97205766  0.34449759     0.36600
C856        C  0.16830300  0.94994704  0.32097678    -0.25400
C857        C  0.14870236  0.95748518  0.30054259    -0.14700
C858        C  0.14277178  0.99011667  0.30286585     0.37700
N859        N  0.12444876  0.99981124  0.28202018    -0.88900
H860        H  0.14905952  0.03765207  0.32808170     0.18800
H861        H  0.17337601  0.92525168  0.31920795     0.18800
N862        N  0.20344043  0.63530599  0.36215680    -0.87900
H863        H  0.14437601  0.02883466  0.27544958     0.36100
H864        H  0.09958679  0.99971752  0.29006287     0.41200
H865        H  0.20914762  0.61292501  0.35591078     0.40900
H866        H  0.18508629  0.62428891  0.37912793     0.35800
C867        C  0.00345841  0.86395583  0.33020797    -0.26000
C868        C  0.32549631  0.83064321  0.34079297    -0.14000
C869        C  0.98895579  0.79624972  0.32271652     0.36600
C870        C  0.00941493  0.80844360  0.29808119    -0.25400
C871        C  0.02911801  0.84857296  0.29041984    -0.14700
C872        C  0.02371420  0.87599437  0.30577694     0.37700
N873        N  0.04021311  0.91689352  0.29782633    -0.88900
H874        H  0.33930189  0.89198209  0.34283302     0.18800
H875        H  0.01314013  0.78719298  0.28617937     0.18800
N876        N  0.30538419  0.76021057  0.33151244    -0.87900
H877        H  0.06187916  0.93424126  0.31157754     0.36100
H878        H  0.05376984  0.92232915  0.27895091     0.41200
H879        H  0.32599708  0.75063190  0.33105370     0.40900
H880        H  0.94964446  0.73825162  0.31597814     0.35800
C881        C  0.18537316  0.86814056  0.30250062    -0.26000
C882        C  0.14478173  0.84657192  0.29755423    -0.14000
C883        C  0.11916640  0.81671524  0.31555873     0.36600
C884        C  0.13358688  0.81074214  0.33921906    -0.25400
C885        C  0.17370286  0.83391986  0.34542672    -0.14700
C886        C  0.20030944  0.86213931  0.32633468     0.37700
N887        N  0.24207380  0.88469447  0.33111516    -0.88900
H888        H  0.20494941  0.89155015  0.28866643     0.18800
H889        H  0.11283970  0.78796067  0.35297235     0.18800
N890        N  0.07788691  0.79322790  0.31033131    -0.87900
H891        H  0.25694299  0.90506818  0.31558027     0.36100
H892        H  0.25266606  0.86477111  0.33080668     0.41200
H893        H  0.06264544  0.79669949  0.32648390     0.40900
H894        H  0.07035234  0.76332205  0.30981618     0.35800
C895        C  0.28216387  0.78020416  0.82947123    -0.26000
C896        C  0.29370972  0.80475017  0.80647311    -0.14000
C897        C  0.33097328  0.83989449  0.80587305     0.36600
C898        C  0.35550732  0.84934869  0.82792019    -0.25400
C899        C  0.00797296  0.82500145  0.84893961    -0.14700
C900        C  0.30578543  0.79057208  0.85186599     0.37700
N901        N  0.96059670  0.76122331  0.87120516    -0.88900
H902        H  0.25373845  0.75332136  0.83064341     0.18800
H903        H  0.04660562  0.87852111  0.82640964     0.18800
N904        N  0.34315111  0.86749560  0.78404265    -0.87900
H905        H  0.28972107  0.78109049  0.89103768     0.36100
H906        H  0.98263025  0.75393638  0.87390671     0.41200
H907        H  0.36989789  0.87145991  0.77626970     0.40900
H908        H  0.34838775  0.89489759  0.79138912     0.35800
C909        C  0.19705448  0.68775926  0.81087736    -0.26000
C910        C  0.17541043  0.70492686  0.80177247    -0.14000
C911        C  0.14216018  0.69967137  0.81646409     0.36600
C912        C  0.13182680  0.67851933  0.84062551    -0.25400
C913        C  0.15177904  0.99455283  0.84664500    -0.14700
C914        C  0.18795166  0.66834554  0.83570101     0.37700
N915        N  0.21167659  0.65277811  0.84546197    -0.88900
H916        H  0.22331573  0.69270078  0.79990102     0.18800
H917        H  0.10193570  0.00380248  0.84796843     0.18800
N918        N  0.11973160  0.71703640  0.80734363    -0.87900
H919        H  0.24085331  0.67634986  0.84660108     0.36100
H920        H  0.20631908  0.96251348  0.82531794     0.41200
H921        H  0.11969835  0.73577596  0.82231780     0.40900
H922        H  0.09051968  0.69408875  0.80495647     0.35800
C923        C  0.15747590  0.81634680  0.80153024    -0.26000
C924        C  0.19750398  0.83192328  0.79523488    -0.14000
C925        C  0.22643224  0.86219651  0.81112676     0.36600
C926        C  0.21502440  0.87464035  0.83410321    -0.25400
C927        C  0.17523255  0.85605515  0.84190505    -0.14700
C928        C  0.14594123  0.82766619  0.82510668     0.37700
N929        N  0.10476153  0.80978512  0.83240083    -0.88900
H930        H  0.13544144  0.79273060  0.78940457     0.18800
H931        H  0.23737334  0.89748859  0.84651253     0.18800
N932        N  0.26759494  0.87834430  0.80491888    -0.87900
H933        H  0.09990482  0.79288274  0.84973280     0.36100
H934        H  0.08710702  0.78989220  0.81769742     0.41200
H935        H  0.28046591  0.90912558  0.80242438     0.40900
H936        H  0.28062645  0.87326352  0.82136188     0.35800
C937        C  0.30936140  0.84737797  0.72865920    -0.26000
C938        C  0.30289863  0.81289979  0.74192634    -0.14000
C939        C  0.31888228  0.79043755  0.73115313     0.36600
C940        C  0.33784443  0.80108236  0.70600123    -0.25400
C941        C  0.00713022  0.83587245  0.69154663    -0.14700
C942        C  0.32772855  0.85778834  0.70355599     0.37700
N943        N  0.99736504  0.89420604  0.68968662    -0.88900
H944        H  0.29656711  0.86436146  0.73677701     0.18800
H945        H  0.01486036  0.78509434  0.69831904     0.18800
N946        N  0.31506505  0.75604905  0.74469226    -0.87900
H947        H  0.34730817  0.91683623  0.70229493     0.36100
H948        H  0.96921824  0.89028035  0.68684517     0.41200
H949        H  0.30112599  0.75206830  0.76331358     0.40900
H950        H  0.34365264  0.76170251  0.74847015     0.35800
C951        C  0.13442169  0.66403803  0.70612208    -0.26000
C952        C  0.16314879  0.99975234  0.68694387    -0.14000
C953        C  0.20197794  0.67853930  0.69904041     0.36600
C954        C  0.21176146  0.69795339  0.72355718    -0.25400
C955        C  0.18406598  0.70240186  0.73892633    -0.14700
C956        C  0.14445545  0.68350281  0.73092808     0.37700
N957        N  0.11474685  0.68430764  0.74781843    -0.88900
H958        H  0.10285825  0.98046932  0.69981859     0.18800
H959        H  0.24218872  0.71236909  0.72970274     0.18800
N960        N  0.23417984  0.02421292  0.67691157    -0.87900
H961        H  0.08703635  0.66913234  0.73883967     0.36100
H962        H  0.12151602  0.71369560  0.75011538     0.41200
H963        H  0.26172550  0.04067620  0.68566171     0.40900
H964        H  0.25546683  0.70515079  0.68021565     0.35800
C965        C  0.19627310  0.86976381  0.70367055    -0.26000
C966        C  0.16954584  0.84057059  0.68600607    -0.14000
C967        C  0.15460507  0.79992378  0.69220785     0.36600
C968        C  0.16748158  0.78974287  0.71487170    -0.25400
C969        C  0.19427875  0.81859029  0.73226548    -0.14700
C970        C  0.20877366  0.85900122  0.72672740     0.37700
N971        N  0.23721969  0.88903849  0.74372633    -0.88900
H972        H  0.20754487  0.90109522  0.69963277     0.18800
H973        H  0.15733376  0.75867261  0.71833359     0.18800
N974        N  0.12734138  0.76810763  0.67564731    -0.87900
H975        H  0.26257778  0.90736598  0.73220803     0.36100
H976        H  0.22550167  0.90639992  0.75070324     0.41200
H977        H  0.13898933  0.77276126  0.65620402     0.40900
H978        H  0.10030993  0.76748445  0.67584859     0.35800
Zn979      Zn  0.42145541  0.17035073  0.62857829     1.49700
Zn980      Zn  0.41086382  0.24532869  0.62886310     1.49400
Zn981      Zn  0.49631945  0.25621213  0.62863377     1.49100
Zn982      Zn  0.44494503  0.22455636  0.57561449     1.49500
O983        O  0.44345586  0.22430264  0.61455348    -1.83800
O984        O  0.38372288  0.16146761  0.65890793    -0.74400
O985        O  0.43940457  0.28541608  0.65794508    -0.74200
O986        O  0.50586655  0.22485413  0.65612566    -0.73800
O987        O  0.36437844  0.20466337  0.65011396    -0.74400
O988        O  0.46101911  0.16258729  0.64766224    -0.74000
O989        O  0.50138633  0.30046518  0.65129254    -0.74600
O990        O  0.50399959  0.25347615  0.56252484    -0.74000
O991        O  0.39318668  0.26807880  0.59944369    -0.74800
O992        O  0.53881869  0.27654290  0.59970147    -0.74200
O993        O  0.41657913  0.25446180  0.56230930    -0.74600
O994        O  0.41550199  0.16571917  0.56268075    -0.74500
O995        O  0.39705022  0.12881713  0.60000541    -0.74300
C996        C  0.36354148  0.17775516  0.66497815     0.77500
C997        C  0.47548897  0.30411232  0.66462644     0.78000
C998        C  0.48944780  0.18789575  0.66147880     0.76900
C999        C  0.53716873  0.27254591  0.57442864     0.77300
C1000       C  0.39764462  0.26935814  0.57411523     0.78400
C1001       C  0.39827724  0.13176617  0.57464921     0.77500
C1002       C  0.54905005  0.11310571  0.79545419     0.45800
H1003       H  0.54615278  0.11385743  0.81755690    -0.03200
C1004       C  0.55457303  0.11126466  0.74419719     0.45900
H1005       H  0.55689609  0.11050106  0.72202982    -0.03200
C1006       C  0.59144495  0.12730356  0.78538885    -0.16900
C1007       C  0.52358242  0.07137634  0.78375617    -0.16700
C1008       C  0.53687460  0.13977140  0.78091685    -0.17000
C1009       C  0.59419016  0.12679403  0.75796995    -0.17000
C1010       C  0.52725789  0.07041133  0.75665454    -0.16600
C1011       C  0.53882571  0.13801256  0.75375183    -0.16900
Zn1012     Zn  0.47352661  0.19626665  0.92660891     1.49700
Zn1013     Zn  0.44591546  0.22778506  0.88293131     1.49400
Zn1014     Zn  0.39062970  0.19563404  0.92895869     1.49100
Zn1015     Zn  0.47555110  0.28077565  0.92729194     1.49500
O1016       O  0.44605846  0.22452994  0.92002988    -1.83800
O1017       O  0.48723182  0.18163750  0.89016718    -0.74400
O1018       O  0.40315354  0.18066392  0.86701358    -0.74200
O1019       O  0.37934475  0.14664240  0.95103459    -0.73800
O1020       O  0.49489292  0.23409552  0.86769713    -0.74400
O1021       O  0.43585858  0.14538191  0.94805719    -0.74000
O1022       O  0.35724733  0.17715664  0.89509222    -0.74600
O1023       O  0.43718965  0.29263296  0.94778839    -0.74000
O1024       O  0.43991760  0.27187578  0.87025115    -0.74800
O1025       O  0.37959903  0.23450680  0.94902020    -0.74200
O1026       O  0.49317636  0.31364540  0.89206072    -0.74600
O1027       O  0.52430265  0.29170051  0.94865715    -0.74500
O1028       O  0.52403029  0.23393316  0.94700607    -0.74300
C1029       C  0.49738903  0.20302305  0.86896127     0.77500
C1030       C  0.36773054  0.17097581  0.87213024     0.78000
C1031       C  0.39978968  0.13017631  0.95604660     0.76900
C1032       C  0.40054829  0.27154756  0.95448668     0.77300
C1033       C  0.47130702  0.30509743  0.87168670     0.78400
C1034       C  0.53978882  0.27039767  0.95416288     0.77500
Zn1035     Zn  0.58396273  0.08322397  0.40520317     1.49700
Zn1036     Zn  0.55875322  0.11333027  0.45781170     1.49400
Zn1037     Zn  0.58888132  0.16808749  0.40442239     1.49100
Zn1038     Zn  0.50578009  0.08805254  0.40533426     1.49500
O1039       O  0.55947935  0.11334475  0.41882699    -1.83800
O1040       O  0.60788942  0.06629641  0.43413026    -0.74400
O1041       O  0.58805069  0.17246258  0.47062491    -0.74200
O1042       O  0.63106990  0.17441120  0.37856247    -0.73800
O1043       O  0.58816699  0.08408452  0.47106619    -0.74400
O1044       O  0.62272292  0.11378919  0.37597388    -0.74000
O1045       O  0.60983825  0.20983751  0.43358752    -0.74600
O1046       O  0.49889952  0.12325345  0.38052356    -0.74000
O1047       O  0.49958519  0.08408318  0.47118346    -0.74800
O1048       O  0.55678371  0.17898629  0.37848364    -0.74200
O1049       O  0.46380704  0.06751350  0.43427927    -0.74600
O1050       O  0.49599676  0.04532425  0.37967352    -0.74500
O1051       O  0.54698399  0.03599645  0.38389631    -0.74300
C1052       C  0.60609690  0.06786554  0.45949633     0.77500
C1053       C  0.60651272  0.20672367  0.45898703     0.78000
C1054       C  0.63710573  0.14888169  0.36675193     0.76900
C1055       C  0.52216022  0.15684319  0.36979114     0.77300
C1056       C  0.46599950  0.06810436  0.45960995     0.78400
C1057       C  0.51515025  0.02840818  0.37264639     0.77500
C1058       C  0.44158278  0.21762950  0.28940564     0.45800
H1059       H  0.43793675  0.21559491  0.31153551    -0.03200
C1060       C  0.44873250  0.22163766  0.23811729     0.45900
H1061       H  0.45140220  0.22335791  0.21592981    -0.03200
C1062       C  0.40206277  0.19844417  0.27505404    -0.16900
C1063       C  0.46494915  0.26061146  0.27878564    -0.16700
C1064       C  0.46388648  0.19757650  0.27832306    -0.17000
C1065       C  0.40585256  0.19943881  0.24794250    -0.17000
C1066       C  0.46753893  0.26251900  0.25138150    -0.16600
C1067       C  0.46853995  0.20062811  0.25109431    -0.16900
Zn1068     Zn  0.58148796  0.16408734  0.12287913     1.49700
Zn1069     Zn  0.58427177  0.08477893  0.12468709     1.49400
Zn1070     Zn  0.50125950  0.08079008  0.12490041     1.49100
Zn1071     Zn  0.55448881  0.10762626  0.07113046     1.49500
O1072       O  0.55532646  0.10914053  0.11020020    -1.83800
O1073       O  0.62341446  0.17563169  0.14952469    -0.74400
O1074       O  0.55199160  0.04493706  0.15311900    -0.74200
O1075       O  0.49448344  0.11412738  0.15235427    -0.73800
O1076       O  0.62937843  0.12210945  0.14705523    -0.74400
O1077       O  0.54649699  0.17427260  0.14594006    -0.74000
O1078       O  0.49192799  0.03601931  0.14891969    -0.74600
O1079       O  0.49555164  0.07807208  0.05880936    -0.74000
O1080       O  0.60345834  0.06200315  0.09579517    -0.74800
O1081       O  0.45935242  0.06235553  0.09651414    -0.74200
O1082       O  0.58386615  0.07793604  0.05847759    -0.74600
O1083       O  0.58370384  0.16620267  0.05645064    -0.74500
O1084       O  0.60250615  0.20374290  0.09302356    -0.74300
C1085       C  0.63839999  0.15531720  0.15758597     0.77500
C1086       C  0.51629540  0.02960435  0.16122066     0.78000
C1087       C  0.51546232  0.15033970  0.15901843     0.76900
C1088       C  0.46189139  0.06284844  0.07109083     0.77300
C1089       C  0.60141490  0.06213560  0.07043898     0.78400
C1090       C  0.60077052  0.20036898  0.06777911     0.77500
Zn1091     Zn  0.36357969  0.30667786  0.02623072     1.49700
Zn1092     Zn  0.61148502  0.30448864  0.02559937     1.49400
Zn1093     Zn  0.36083713  0.05463220  0.02742241     1.46500
Zn1094     Zn  0.33450899  0.00078347  0.97339386     1.49500
O1095       O  0.33309798  0.99973979  0.01308841    -1.83800
O1096       O  0.65592129  0.25398971  0.04567426    -0.74400
O1097       O  0.59981915  0.00758113  0.04778863    -0.74200
O1098       O  0.40934514  0.06596053  0.04970211    -0.73800
O1099       O  0.59883865  0.25365463  0.04608526    -0.74400
O1100       O  0.40871616  0.00844219  0.04891680    -0.74000
O1101       O  0.65718345  0.06486866  0.04864467    -0.74600
O1102       O  0.36433369  0.05924847  0.96002068    -0.74000
O1103       O  0.57265267  0.28674734  0.99537208    -0.74800
O1104       O  0.38194433  0.09521527  0.99723328    -0.74200
O1105       O  0.61015549  0.30407782  0.95837300    -0.74600
O1106       O  0.36522093  0.30629081  0.95864388    -0.74500
O1107       O  0.38357293  0.28834742  0.99551321    -0.74300
C1108       C  0.61924392  0.23750495  0.05187357     0.77500
C1109       C  0.62041173  0.04392520  0.05473192     0.78000
C1110       C  0.42479950  0.04490018  0.05571928     0.76900
C1111       C  0.38120630  0.09287091  0.97186910     0.77300
C1112       C  0.57617137  0.28802081  0.97003582     0.78400
C1113       C  0.38223973  0.28989753  0.97025239     0.77500
Zn1114     Zn  0.38970223  0.02981070  0.53099340     1.49700
Zn1115     Zn  0.64164867  0.03056480  0.53103177     1.49400
Zn1116     Zn  0.33730835  0.33757749  0.47734136     1.49100
Zn1117     Zn  0.63953405  0.28000693  0.53098100     1.49500
O1118       O  0.33650414  0.33699271  0.51698654    -1.83800
O1119       O  0.40027389  0.07841492  0.55303894    -0.74400
O1120       O  0.62241541  0.05082684  0.50103048    -0.74200
O1121       O  0.39516018  0.03309153  0.46403775    -0.73800
O1122       O  0.34399510  0.07962849  0.55204171    -0.74400
O1123       O  0.43056801  0.05065320  0.50103165    -0.74000
O1124       O  0.64237825  0.03338569  0.46420163    -0.74600
O1125       O  0.62136593  0.24041188  0.50060459    -0.74000
O1126       O  0.59234665  0.32767481  0.55304770    -0.74800
O1127       O  0.64185141  0.27802540  0.46376087    -0.74200
O1128       O  0.58928594  0.26888672  0.55183994    -0.74600
O1129       O  0.34374447  0.26861863  0.55232932    -0.74500
O1130       O  0.40181558  0.32522115  0.55163409    -0.74300
C1131       C  0.37990046  0.09476177  0.55899216     0.77500
C1132       C  0.62477270  0.04989486  0.47570203     0.78000
C1133       C  0.42859969  0.04967957  0.47569818     0.76900
C1134       C  0.62425434  0.24369801  0.47524594     0.77300
C1135       C  0.57478058  0.29058265  0.55883525     0.78400
C1136       C  0.38024313  0.28864865  0.55835469     0.77500
C1137       C  0.35415995  0.20308821  0.22241799    -0.26000
C1138       C  0.37387680  0.18259054  0.22846876    -0.14000
C1139       C  0.36998092  0.15186000  0.21170372     0.36600
C1140       C  0.68951357  0.15282687  0.18420437    -0.25400
C1141       C  0.66450952  0.16838905  0.18095001    -0.14700
C1142       C  0.33176483  0.19428813  0.19920200     0.37700
N1143       N  0.31124420  0.21530573  0.19393898    -0.88900
H1144       H  0.35735736  0.22703171  0.23517757     0.18800
H1145       H  0.69178644  0.13432702  0.16886082     0.18800
N1146       N  0.38891018  0.12970811  0.21803803    -0.87900
H1147       H  0.33202321  0.24578911  0.19307962     0.36100
H1148       H  0.29179432  0.21031859  0.20998816     0.41200
H1149       H  0.40751614  0.13249299  0.20192465     0.40900
H1150       H  0.71948140  0.11295355  0.20833923     0.35800
C1151       C  0.53312491  0.00707183  0.20316926    -0.26000
C1152       C  0.50411460  0.00735283  0.18698879    -0.14000
C1153       C  0.46579973  0.32130355  0.19431844     0.36600
C1154       C  0.45556205  0.30089701  0.21873705    -0.25400
C1155       C  0.48359796  0.29771615  0.23384842    -0.14700
C1156       C  0.52357698  0.31793907  0.22529722     0.37700
N1157       N  0.55404639  0.31696676  0.24030841    -0.88900
H1158       H  0.56370204  0.02149235  0.19632698     0.18800
H1159       H  0.42472786  0.28494532  0.22507563     0.18800
N1160       N  0.43564007  0.32261089  0.17932827    -0.87900
H1161       H  0.54274569  0.30084844  0.25808329     0.36100
H1162       H  0.57421676  0.34622020  0.24577120     0.41200
H1163       H  0.42252631  0.00500201  0.19357151     0.40900
H1164       H  0.41342242  0.29333851  0.17557150     0.35800
C1165       C  0.48499026  0.13569495  0.20461426    -0.26000
C1166       C  0.50638126  0.16388601  0.18424953    -0.14000
C1167       C  0.52325159  0.20474475  0.18985560     0.36600
C1168       C  0.51611078  0.21631064  0.21467744    -0.25400
C1169       C  0.49083599  0.18809902  0.23367360    -0.14700
C1170       C  0.47728487  0.14761953  0.22937980     0.37700
N1171       N  0.45434331  0.11856032  0.24954539    -0.88900
H1172       H  0.47381596  0.10426898  0.20126728     0.18800
H1173       H  0.52693386  0.24757244  0.21795769     0.18800
N1174       N  0.54614341  0.23465999  0.17009650    -0.87900
H1175       H  0.46937254  0.10364133  0.25451559     0.36100
H1176       H  0.42733526  0.09766459  0.24146421     0.41200
H1177       H  0.57411191  0.25363579  0.17785634     0.40900
H1178       H  0.53247664  0.25142262  0.16677696     0.35800
C1179       C  0.49004571  0.34870613  0.32356552    -0.26000
C1180       C  0.50240140  0.00272844  0.34901032    -0.14000
C1181       C  0.51563083  0.30871782  0.34210033     0.36600
C1182       C  0.50520824  0.28642780  0.31875130    -0.25400
C1183       C  0.48536506  0.29328214  0.29820009    -0.14700
C1184       C  0.47926604  0.32588951  0.30010846     0.37700
N1185       N  0.46102049  0.33510665  0.27894614    -0.88900
H1186       H  0.48487497  0.37354650  0.32507569     0.18800
H1187       H  0.51070210  0.26191867  0.31743845     0.18800
N1188       N  0.52441613  0.95896877  0.36847618    -0.87900
H1189       H  0.48088506  0.36402779  0.27220704     0.36100
H1190       H  0.43600383  0.33499304  0.28673234     0.41200
H1191       H  0.52749852  0.93459224  0.36333668     0.40900
H1192       H  0.50360454  0.94949178  0.38421609     0.35800
C1193       C  0.34075680  0.20115669  0.33046017    -0.26000
C1194       C  0.65822269  0.15955176  0.34046261    -0.14000
C1195       C  0.32421334  0.13276408  0.32303718     0.36600
C1196       C  0.34482197  0.14435813  0.29848962    -0.25400
C1197       C  0.36550561  0.18442615  0.29083744    -0.14700
C1198       C  0.36092713  0.21253155  0.30596888     0.37700
N1199       N  0.37772912  0.25325353  0.29751725    -0.88900
H1200       H  0.67070410  0.22046711  0.34245005     0.18800
H1201       H  0.34772241  0.12257870  0.28661908     0.18800
N1202       N  0.64076539  0.08984035  0.33123062    -0.87900
H1203       H  0.39978107  0.27083561  0.31101855     0.36100
H1204       H  0.39080502  0.25797004  0.27855326     0.41200
H1205       H  0.66220773  0.08135631  0.33127006     0.40900
H1206       H  0.28326333  0.07532457  0.31613063     0.35800
C1207       C  0.52107881  0.20215154  0.30227044    -0.26000
C1208       C  0.48045644  0.18113595  0.29728891    -0.14000
C1209       C  0.45455116  0.15171323  0.31548032     0.36600
C1210       C  0.46879737  0.14540817  0.33914282    -0.25400
C1211       C  0.50904290  0.16773741  0.34522663    -0.14700
C1212       C  0.53583698  0.19567117  0.32607719     0.37700
N1213       N  0.57764574  0.21741680  0.33076173    -0.88900
H1214       H  0.54091150  0.22531555  0.28838464     0.18800
H1215       H  0.44781117  0.12297197  0.35298161     0.18800
N1216       N  0.41315300  0.12896819  0.31041927    -0.87900
H1217       H  0.59276180  0.23763738  0.31518399     0.36100
H1218       H  0.58757127  0.19696272  0.33042652     0.41200
H1219       H  0.39829789  0.13300659  0.32658769     0.40900
H1220       H  0.40492004  0.09887244  0.31000808     0.35800
C1221       C  0.61451602  0.11268155  0.82716307    -0.26000
C1222       C  0.62319859  0.13831535  0.80504078    -0.14000
C1223       C  0.65872450  0.17522707  0.80456734     0.36600
C1224       C  0.68425333  0.18570771  0.82620042    -0.25400
C1225       C  0.34068866  0.15755358  0.84966444    -0.14700
C1226       C  0.63959139  0.12325434  0.84880928     0.37700
N1227       N  0.29002285  0.09415592  0.87191177    -0.88900
H1228       H  0.58734953  0.08458923  0.82818428     0.18800
H1229       H  0.38105244  0.21017158  0.82684665     0.18800
N1230       N  0.66818165  0.20300406  0.78308113    -0.87900
H1231       H  0.62673348  0.10889252  0.88801568     0.36100
H1232       H  0.31078932  0.10310948  0.88698670     0.41200
H1233       H  0.69518334  0.20889718  0.77449271     0.40900
H1234       H  0.67217751  0.22965626  0.79097728     0.35800
C1235       C  0.52654442  0.02137794  0.81153276    -0.26000
C1236       C  0.50380555  0.03694884  0.80186073    -0.14000
C1237       C  0.46866138  0.02862460  0.81541511     0.36600
C1238       C  0.45800063  0.00680179  0.83935177    -0.25400
C1239       C  0.48374588  0.33080518  0.84798465    -0.14700
C1240       C  0.51730179  0.00180326  0.83629149     0.37700
N1241       N  0.54255718  0.98865045  0.84691781    -0.88900
H1242       H  0.55360579  0.02768737  0.80104725     0.18800
H1243       H  0.44753206  0.35645919  0.85785948     0.18800
N1244       N  0.44442706  0.04334045  0.80539500    -0.87900
H1245       H  0.57087739  0.01352469  0.84870753     0.36100
H1246       H  0.51416669  0.28071230  0.81705695     0.41200
H1247       H  0.44116555  0.06012178  0.82051990     0.40900
H1248       H  0.41644088  0.01892907  0.80190560     0.35800
C1249       C  0.48610296  0.14531002  0.80630869    -0.26000
C1250       C  0.52511505  0.16389352  0.79671637    -0.14000
C1251       C  0.55462237  0.19777779  0.80969849     0.36600
C1252       C  0.54514558  0.21104438  0.83315509    -0.25400
C1253       C  0.50705063  0.18951637  0.84433229    -0.14700
C1254       C  0.47693309  0.15744962  0.83035481     0.37700
N1255       N  0.43716297  0.13695258  0.84075163    -0.88900
H1256       H  0.46335983  0.11954946  0.79613582     0.18800
H1257       H  0.56793293  0.23687340  0.84332278     0.18800
N1258       N  0.59472708  0.21709683  0.80005658    -0.87900
H1259       H  0.42863835  0.10700641  0.84374982     0.36100
H1260       H  0.41884243  0.13825716  0.82639516     0.41200
H1261       H  0.60379306  0.24692525  0.79616138     0.40900
H1262       H  0.61209884  0.21633194  0.81540954     0.35800
C1263       C  0.63376636  0.17714134  0.72537651    -0.26000
C1264       C  0.62962236  0.14501470  0.74050828    -0.14000
C1265       C  0.64785065  0.12366827  0.73139803     0.36600
C1266       C  0.66768184  0.13369968  0.70644159    -0.25400
C1267       C  0.34148618  0.16767163  0.69090299    -0.14700
C1268       C  0.65147897  0.18575754  0.70007585     0.37700
N1269       N  0.33679156  0.22900742  0.68902189    -0.88900
H1270       H  0.61922716  0.19306049  0.73210987     0.18800
H1271       H  0.34721025  0.11589431  0.69833132     0.18800
N1272       N  0.64579374  0.09118124  0.74643075    -0.87900
H1273       H  0.66355009  0.24232600  0.69444263     0.36100
H1274       H  0.30965276  0.22734437  0.68599217     0.41200
H1275       H  0.63075560  0.08724935  0.76461228     0.40900
H1276       H  0.67473925  0.09901548  0.75114484     0.35800
C1277       C  0.46305417  0.99428849  0.70705852    -0.26000
C1278       C  0.48735449  0.32805436  0.68954878    -0.14000
C1279       C  0.53153213  0.01176034  0.69999587     0.36600
C1280       C  0.54075656  0.03180678  0.72427701    -0.25400
C1281       C  0.51226668  0.03533111  0.73933800    -0.14700
C1282       C  0.47273220  0.01479776  0.73140524     0.37700
N1283       N  0.44266505  0.01576099  0.74752571    -0.88900
H1284       H  0.42931662  0.32029401  0.69793027     0.18800
H1285       H  0.57125634  0.04749966  0.73037865     0.18800
N1286       N  0.55458011  0.33625006  0.68681077    -0.87900
H1287       H  0.42182069  0.98643363  0.75292104     0.36100
H1288       H  0.42840359  0.02684683  0.73589268     0.41200
H1289       H  0.56293077  0.32114659  0.70005414     0.40900
H1290       H  0.58483948  0.04000173  0.68098306     0.35800
C1291       C  0.53060673  0.20387869  0.70211423    -0.26000
C1292       C  0.50139859  0.17474625  0.68564870    -0.14000
C1293       C  0.48150593  0.13440869  0.69447197     0.36600
C1294       C  0.49213651  0.12448154  0.71832586    -0.25400
C1295       C  0.52222616  0.15319205  0.73395889    -0.14700
C1296       C  0.54120166  0.19337046  0.72610162     0.37700
N1297       N  0.57170418  0.22341332  0.74197469    -0.88900
H1298       H  0.54559421  0.23506146  0.69637002     0.18800
H1299       H  0.47785621  0.09342208  0.72415477     0.18800
N1300       N  0.45074699  0.10246241  0.67980523    -0.87900
H1301       H  0.59715723  0.23896346  0.72993112     0.36100
H1302       H  0.56271852  0.24353910  0.74775553     0.41200
H1303       H  0.46163910  0.10141102  0.66080444     0.40900
H1304       H  0.42673732  0.10708564  0.67841231     0.35800
Zn1305     Zn  0.42306103  0.50476107  0.62893155     1.49700
Zn1306     Zn  0.41477052  0.58199339  0.62997454     1.49400
Zn1307     Zn  0.49926750  0.59108677  0.62809040     1.49100
Zn1308     Zn  0.44528142  0.55972825  0.57608329     1.49500
O1309       O  0.44533394  0.55925616  0.61510972    -1.83800
O1310       O  0.37974925  0.49112594  0.65646645    -0.74400
O1311       O  0.44608890  0.62333767  0.65727190    -0.74200
O1312       O  0.50993163  0.56153658  0.65604083    -0.73800
O1313       O  0.37144752  0.54319074  0.65382284    -0.74400
O1314       O  0.46135685  0.49958448  0.65148767    -0.74000
O1315       O  0.50748248  0.63715743  0.64971700    -0.74600
O1316       O  0.50386641  0.58957198  0.56196423    -0.74000
O1317       O  0.39377071  0.60304848  0.60131403    -0.74800
O1318       O  0.54010239  0.60940759  0.59871483    -0.74200
O1319       O  0.41535760  0.58848573  0.56376720    -0.74600
O1320       O  0.41644774  0.50103717  0.56269438    -0.74500
O1321       O  0.40374838  0.46398566  0.59955544    -0.74300
C1322       C  0.36336152  0.51038973  0.66471384     0.77500
C1323       C  0.48238442  0.64162315  0.66333484     0.78000
C1324       C  0.49180294  0.52535061  0.66352365     0.76900
C1325       C  0.53746042  0.60696040  0.57345001     0.77300
C1326       C  0.39666319  0.60336344  0.57589079     0.78400
C1327       C  0.40252267  0.46704951  0.57432568     0.77500
C1328       C  0.55455604  0.44927139  0.79388401     0.45800
H1329       H  0.55266758  0.44977744  0.81605560    -0.03200
C1330       C  0.55765756  0.44799429  0.74250019     0.45900
H1331       H  0.55904916  0.44765618  0.72027925    -0.03200
C1332       C  0.59520634  0.45875998  0.78298384    -0.16900
C1333       C  0.52500228  0.40886465  0.78204804    -0.16700
C1334       C  0.54631720  0.47953333  0.78050922    -0.17000
C1335       C  0.59688878  0.45875266  0.75554174    -0.17000
C1336       C  0.52717600  0.40785184  0.75477162    -0.16600
C1337       C  0.54683361  0.47813607  0.75332294    -0.16900
Zn1338     Zn  0.47254855  0.52872491  0.92393335     1.49700
Zn1339     Zn  0.44316596  0.56225660  0.88207189     1.49400
Zn1340     Zn  0.38852591  0.52743226  0.92777714     1.49100
Zn1341     Zn  0.47366185  0.61181234  0.92768583     1.49500
O1342       O  0.44409261  0.55615672  0.91888309    -1.83800
O1343       O  0.48739491  0.51701720  0.88695936    -0.74400
O1344       O  0.40079342  0.51783887  0.86453057    -0.74200
O1345       O  0.37869577  0.47870872  0.94957577    -0.73800
O1346       O  0.48993602  0.56739223  0.86432570    -0.74400
O1347       O  0.43519628  0.47740890  0.94503688    -0.74000
O1348       O  0.35425671  0.50914896  0.89384856    -0.74600
O1349       O  0.43519483  0.62426031  0.94768065    -0.74000
O1350       O  0.43789895  0.60816947  0.87319380    -0.74800
O1351       O  0.37757160  0.56622673  0.94851331    -0.74200
O1352       O  0.49419136  0.64500669  0.89321571    -0.74600
O1353       O  0.52167079  0.62208574  0.94904274    -0.74500
O1354       O  0.52359091  0.56583711  0.94424188    -0.74300
C1355       C  0.49586282  0.53837213  0.86580477     0.77500
C1356       C  0.36512009  0.50592541  0.87020949     0.78000
C1357       C  0.39951481  0.46239219  0.95388774     0.76900
C1358       C  0.39846806  0.60322903  0.95420137     0.77300
C1359       C  0.47177259  0.63878658  0.87350883     0.78400
C1360       C  0.53845446  0.60157811  0.95276409     0.77500
Zn1361     Zn  0.58521642  0.41820799  0.40408876     1.49700
Zn1362     Zn  0.55896577  0.44684808  0.45682681     1.49400
Zn1363     Zn  0.58738939  0.50217219  0.40428788     1.49100
Zn1364     Zn  0.50608460  0.42064887  0.40393051     1.49500
O1365       O  0.55952198  0.44703221  0.41790803    -1.83800
O1366       O  0.60813411  0.39984119  0.43303558    -0.74400
O1367       O  0.58755457  0.50584625  0.47014070    -0.74200
O1368       O  0.62942601  0.51017408  0.37830998    -0.73800
O1369       O  0.58823731  0.41742413  0.46997971    -0.74400
O1370       O  0.62477553  0.45101488  0.37603948    -0.74000
O1371       O  0.60787402  0.54351036  0.43325986    -0.74600
O1372       O  0.49820048  0.45612806  0.38024810    -0.74000
O1373       O  0.49997171  0.41729813  0.46982016    -0.74800
O1374       O  0.55498339  0.51297165  0.37900467    -0.74200
O1375       O  0.46398455  0.39882134  0.43293717    -0.74600
O1376       O  0.49813214  0.37986840  0.37662099    -0.74500
O1377       O  0.55022711  0.37243155  0.38079746    -0.74300
C1378       C  0.60601739  0.40104523  0.45842349     0.77500
C1379       C  0.60510961  0.54020693  0.45860794     0.78000
C1380       C  0.63719938  0.48575429  0.36671633     0.76900
C1381       C  0.52078563  0.49020821  0.36997817     0.77300
C1382       C  0.46635524  0.40039926  0.45828993     0.78400
C1383       C  0.51857031  0.36449304  0.36912492     0.77500
C1384       C  0.44066648  0.54924089  0.28978714     0.45800
H1385       H  0.43712350  0.54686866  0.31192090    -0.03200
C1386       C  0.44796892  0.55375613  0.23846917     0.45900
H1387       H  0.45084270  0.55568302  0.21628996    -0.03200
C1388       C  0.40116895  0.53034665  0.27547615    -0.16900
C1389       C  0.46386139  0.59235440  0.27934567    -0.16700
C1390       C  0.46279641  0.52919984  0.27838056    -0.17000
C1391       C  0.40504971  0.53170417  0.24831676    -0.17000
C1392       C  0.46678405  0.59451891  0.25194868    -0.16600
C1393       C  0.46737788  0.53230301  0.25125768    -0.16900
Zn1394     Zn  0.58426996  0.49993611  0.12200880     1.49700
Zn1395     Zn  0.58686617  0.42064949  0.12438943     1.49400
Zn1396     Zn  0.50404507  0.41616152  0.12435067     1.49100
Zn1397     Zn  0.55702669  0.44277372  0.07076793     1.49500
O1398       O  0.55804930  0.44479373  0.10971579    -1.83800
O1399       O  0.62856360  0.51336744  0.14672343    -0.74400
O1400       O  0.55433382  0.38028621  0.15232861    -0.74200
O1401       O  0.49825755  0.44872531  0.15296893    -0.73800
O1402       O  0.63115242  0.45793521  0.14702442    -0.74400
O1403       O  0.55056614  0.50888954  0.14724293    -0.74000
O1404       O  0.49385526  0.36956304  0.14692151    -0.74600
O1405       O  0.49848086  0.41291768  0.05829939    -0.74000
O1406       O  0.60598208  0.39766760  0.09581920    -0.74800
O1407       O  0.46220130  0.39908015  0.09583877    -0.74200
O1408       O  0.58588800  0.41281853  0.05841934    -0.74600
O1409       O  0.58579336  0.50091330  0.05576515    -0.74500
O1410       O  0.60238297  0.53905361  0.09205189    -0.74300
C1411       C  0.64182637  0.49228967  0.15619661     0.77500
C1412       C  0.51817426  0.36342990  0.15954541     0.78000
C1413       C  0.51962718  0.48460721  0.16028062     0.76900
C1414       C  0.46484085  0.39858082  0.07043069     0.77300
C1415       C  0.60335536  0.39708530  0.07050538     0.78400
C1416       C  0.60138648  0.53519439  0.06685339     0.77500
Zn1417     Zn  0.36050122  0.63784500  0.02596326     1.49700
Zn1418     Zn  0.61094489  0.63745079  0.02357684     1.49400
Zn1419     Zn  0.36357091  0.38918424  0.02636451     1.46500
Zn1420     Zn  0.33610236  0.33413704  0.97304274     1.49500
O1421       O  0.33611374  0.33395140  0.01274978    -1.83800
O1422       O  0.65596083  0.58810563  0.04411368    -0.74400
O1423       O  0.60040744  0.34168636  0.04828469    -0.74200
O1424       O  0.41212407  0.40100071  0.04876372    -0.73800
O1425       O  0.59893972  0.58792112  0.04500791    -0.74400
O1426       O  0.41246101  0.34391627  0.04791590    -0.74000
O1427       O  0.65816689  0.39871614  0.04849405    -0.74600
O1428       O  0.36480042  0.39173449  0.95872737    -0.74000
O1429       O  0.57196399  0.61757059  0.99358785    -0.74800
O1430       O  0.38373648  0.42869823  0.99547614    -0.74200
O1431       O  0.60905558  0.63707414  0.95643128    -0.74600
O1432       O  0.36425545  0.63930674  0.95847647    -0.74500
O1433       O  0.38018343  0.61891917  0.99528339    -0.74300
C1434       C  0.61945498  0.57189449  0.05068886     0.77500
C1435       C  0.62154916  0.37813229  0.05493288     0.78000
C1436       C  0.42794540  0.38029586  0.05485532     0.76900
C1437       C  0.38194364  0.42562374  0.97014758     0.77300
C1438       C  0.57516249  0.61942556  0.96827093     0.78400
C1439       C  0.38004106  0.62159861  0.97002074     0.77500
Zn1440     Zn  0.39154582  0.36388440  0.53034010     1.49700
Zn1441     Zn  0.64163355  0.36431011  0.53031207     1.49400
Zn1442     Zn  0.33490494  0.66879247  0.47753409     1.49100
Zn1443     Zn  0.63924423  0.61401180  0.53016486     1.49500
O1444       O  0.33415000  0.66863692  0.51711418    -1.83800
O1445       O  0.40386708  0.41326648  0.55243680    -0.74400
O1446       O  0.62224491  0.38410787  0.50005861    -0.74200
O1447       O  0.39558789  0.36629031  0.46323154    -0.73800
O1448       O  0.34786489  0.41500674  0.55190550    -0.74400
O1449       O  0.43164576  0.38348420  0.49991541    -0.74000
O1450       O  0.64155150  0.36575052  0.46336661    -0.74600
O1451       O  0.62024216  0.57402013  0.50013927    -0.74000
O1452       O  0.59167305  0.66170362  0.55130532    -0.74800
O1453       O  0.63988893  0.61140675  0.46320809    -0.74200
O1454       O  0.58959060  0.60330124  0.55125249    -0.74600
O1455       O  0.34202748  0.60103516  0.55374835    -0.74500
O1456       O  0.39930099  0.65841870  0.55327771    -0.74300
C1457       C  0.38391785  0.43003398  0.55853753     0.77500
C1458       C  0.62431966  0.38273105  0.47473261     0.78000
C1459       C  0.42921397  0.38239779  0.47460450     0.76900
C1460       C  0.62267006  0.57716272  0.47479496     0.77300
C1461       C  0.57458905  0.62479829  0.55754391     0.78400
C1462       C  0.37830898  0.62186850  0.56019563     0.77500
C1463       C  0.35496582  0.53662173  0.22188373    -0.26000
C1464       C  0.37333863  0.51509057  0.22871962    -0.14000
C1465       C  0.36956504  0.48428640  0.21208990     0.36600
C1466       C  0.68180409  0.48163329  0.18921003    -0.25400
C1467       C  0.66660024  0.50535701  0.18025225    -0.14700
C1468       C  0.33401354  0.52872773  0.19808187     0.37700
N1469       N  0.31545422  0.55132517  0.19175675    -0.88900
H1470       H  0.35828824  0.56079497  0.23442828     0.18800
H1471       H  0.67837771  0.45660526  0.17755384     0.18800
N1472       N  0.38800527  0.46181264  0.21883341    -0.87900
H1473       H  0.33722551  0.58147289  0.19108866     0.36100
H1474       H  0.29542031  0.54726151  0.20722721     0.41200
H1475       H  0.40715855  0.46471775  0.20304529     0.40900
H1476       H  0.69310216  0.43554446  0.22368639     0.35800
C1477       C  0.53388720  0.33831977  0.20073687    -0.26000
C1478       C  0.50525313  0.33937972  0.18459340    -0.14000
C1479       C  0.46289225  0.65280892  0.19551809     0.36600
C1480       C  0.45378561  0.63324510  0.22023799    -0.25400
C1481       C  0.48232967  0.62982265  0.23457096    -0.14700
C1482       C  0.52178786  0.64917389  0.22495356     0.37700
N1483       N  0.55290808  0.64860853  0.23940513    -0.88900
H1484       H  0.56463687  0.35321051  0.19423798     0.18800
H1485       H  0.42335752  0.61803395  0.22741233     0.18800
N1486       N  0.43222943  0.65404960  0.18113935    -0.87900
H1487       H  0.54245989  0.63379553  0.25770493     0.36100
H1488       H  0.57380367  0.67809605  0.24386753     0.41200
H1489       H  0.42334987  0.33600635  0.19114127     0.40900
H1490       H  0.40963950  0.62474643  0.17797437     0.35800
C1491       C  0.48718949  0.46858385  0.20533368    -0.26000
C1492       C  0.51032665  0.49746554  0.18574947    -0.14000
C1493       C  0.52715612  0.53813463  0.19201125     0.36600
C1494       C  0.51717615  0.54881586  0.21619027    -0.25400
C1495       C  0.49017573  0.52000926  0.23413934    -0.14700
C1496       C  0.47721733  0.47966574  0.22962811     0.37700
N1497       N  0.45264978  0.44990988  0.24897915    -0.88900
H1498       H  0.47614245  0.43726413  0.20162783     0.18800
H1499       H  0.52775774  0.57990880  0.21977571     0.18800
N1500       N  0.55288661  0.56881479  0.17350454    -0.87900
H1501       H  0.46747302  0.43518433  0.25489431     0.36100
H1502       H  0.42665713  0.42896290  0.23979330     0.41200
H1503       H  0.57977638  0.58692082  0.18287429     0.40900
H1504       H  0.54026156  0.58627447  0.16918398     0.35800
C1505       C  0.48397904  0.67861866  0.32468142    -0.26000
C1506       C  0.50704087  0.33949706  0.34501216    -0.14000
C1507       C  0.51265118  0.64128994  0.34295977     0.36600
C1508       C  0.50317768  0.61919089  0.31955996    -0.25400
C1509       C  0.48281065  0.62502779  0.29894599    -0.14700
C1510       C  0.47478335  0.65637195  0.30098056     0.37700
N1511       N  0.45673241  0.66525079  0.27952008    -0.88900
H1512       H  0.47731170  0.70244915  0.32622804     0.18800
H1513       H  0.51016187  0.59576565  0.31817027     0.18800
N1514       N  0.53327604  0.29869199  0.36327142    -0.87900
H1515       H  0.47625622  0.69446423  0.27312936     0.36100
H1516       H  0.43112604  0.66432346  0.28686561     0.41200
H1517       H  0.55942252  0.30084624  0.35582362     0.40900
H1518       H  0.51398493  0.26900134  0.36881353     0.35800
C1519       C  0.33850720  0.53232582  0.33045673    -0.26000
C1520       C  0.65791228  0.49705493  0.34045778    -0.14000
C1521       C  0.32657212  0.46496474  0.32517669     0.36600
C1522       C  0.34623785  0.47619359  0.30023000    -0.25400
C1523       C  0.36462525  0.51566949  0.29144582    -0.14700
C1524       C  0.35854162  0.54338875  0.30587081     0.37700
N1525       N  0.37357024  0.58348714  0.29660661    -0.88900
H1526       H  0.67306176  0.55867545  0.34413188     0.18800
H1527       H  0.35052280  0.45494693  0.28876429     0.18800
N1528       N  0.63552202  0.42674385  0.32897945    -0.87900
H1529       H  0.39476837  0.60228974  0.31015471     0.36100
H1530       H  0.38741937  0.58820681  0.27787911     0.41200
H1531       H  0.65529026  0.41608373  0.32838266     0.40900
H1532       H  0.31184116  0.40673094  0.31936445     0.35800
C1533       C  0.52008213  0.53748772  0.30339675    -0.26000
C1534       C  0.48032829  0.51341578  0.29680863    -0.14000
C1535       C  0.45513548  0.48101038  0.31323449     0.36600
C1536       C  0.46877698  0.47510688  0.33727325    -0.25400
C1537       C  0.50780586  0.50074039  0.34526371    -0.14700
C1538       C  0.53431336  0.53159991  0.32755132     0.37700
N1539       N  0.57520554  0.55699224  0.33404454    -0.88900
H1540       H  0.53929498  0.56260352  0.29057059     0.18800
H1541       H  0.44827993  0.45021031  0.34979372     0.18800
N1542       N  0.41516800  0.45438931  0.30581303    -0.87900
H1543       H  0.58975642  0.57926840  0.31950389     0.36100
H1544       H  0.58866438  0.53961059  0.33333802     0.41200
H1545       H  0.39675375  0.45357175  0.32146222     0.40900
H1546       H  0.41140899  0.42585529  0.30416756     0.35800
C1547       C  0.61604217  0.44168702  0.82474108    -0.26000
C1548       C  0.62682140  0.46698657  0.80217514    -0.14000
C1549       C  0.66342121  0.50282535  0.80181447     0.36600
C1550       C  0.68808177  0.51260317  0.82378230    -0.25400
C1551       C  0.33801966  0.49228022  0.84778010    -0.14700
C1552       C  0.63944596  0.45283237  0.84740775     0.37700
N1553       N  0.29388400  0.42634274  0.86872698    -0.88900
H1554       H  0.58786658  0.41413403  0.82546008     0.18800
H1555       H  0.37498476  0.54668129  0.82543815     0.18800
N1556       N  0.67437146  0.53107885  0.78048842    -0.87900
H1557       H  0.62229886  0.44313957  0.88633231     0.36100
H1558       H  0.31758175  0.42166224  0.87183364     0.41200
H1559       H  0.70149518  0.53657186  0.77241729     0.40900
H1560       H  0.67838805  0.55776136  0.78842155     0.35800
C1561       C  0.51679582  0.34915578  0.80445658    -0.26000
C1562       C  0.50262344  0.37526524  0.80043730    -0.14000
C1563       C  0.47707524  0.37752494  0.81963098     0.36600
C1564       C  0.46724892  0.35473826  0.84313702    -0.25400
C1565       C  0.48582308  0.66332574  0.84934605    -0.14700
C1566       C  0.50777052  0.32711429  0.82821560     0.37700
N1567       N  0.52366877  0.30154987  0.83245644    -0.88900
H1568       H  0.53746343  0.34829300  0.79013641     0.18800
H1569       H  0.43580395  0.67235984  0.84885877     0.18800
N1570       N  0.46264248  0.40443027  0.81577366    -0.87900
H1571       H  0.55451285  0.31883559  0.83108668     0.36100
H1572       H  0.54312268  0.63251876  0.83164874     0.41200
H1573       H  0.47183086  0.42418546  0.83180436     0.40900
H1574       H  0.43173592  0.38793677  0.81634423     0.35800
C1575       C  0.49760865  0.49627989  0.79851355    -0.26000
C1576       C  0.53671646  0.50456420  0.79719925    -0.14000
C1577       C  0.56342410  0.52779174  0.81710603     0.36600
C1578       C  0.54985523  0.53940745  0.83936352    -0.25400
C1579       C  0.51004685  0.52809289  0.84179119    -0.14700
C1580       C  0.48397831  0.50783819  0.82085752     0.37700
N1581       N  0.44324608  0.49712719  0.82294867    -0.88900
H1582       H  0.47683394  0.47780059  0.78349363     0.18800
H1583       H  0.57010717  0.55616357  0.85510759     0.18800
N1584       N  0.60395609  0.53781403  0.81535486    -0.87900
H1585       H  0.42590371  0.46612785  0.82168946     0.36100
H1586       H  0.43692836  0.50950960  0.80657554     0.41200
H1587       H  0.62161188  0.56880672  0.81574871     0.40900
H1588       H  0.61008428  0.52631130  0.83232078     0.35800
C1589       C  0.64130573  0.51145927  0.72571119    -0.26000
C1590       C  0.63203162  0.47542609  0.73794049    -0.14000
C1591       C  0.64575369  0.45147481  0.72633171     0.36600
C1592       C  0.66527903  0.46256574  0.70134767    -0.25400
C1593       C  0.33739052  0.49677092  0.68906165    -0.14700
C1594       C  0.66068677  0.52265324  0.70099446     0.37700
N1595       N  0.32057861  0.54999018  0.68354732    -0.88900
H1596       H  0.63094775  0.52991324  0.73475359     0.18800
H1597       H  0.34826699  0.44858842  0.69795875     0.18800
N1598       N  0.63970605  0.41562081  0.73899078    -0.87900
H1599       H  0.68530255  0.58251857  0.70240368     0.36100
H1600       H  0.29145675  0.54268178  0.67991990     0.41200
H1601       H  0.62613323  0.41176330  0.75778910     0.40900
H1602       H  0.66756125  0.41921112  0.74242720     0.35800
C1603       C  0.45939492  0.33303087  0.70471702    -0.26000
C1604       C  0.49488177  0.66507415  0.68830040    -0.14000
C1605       C  0.52556820  0.34279648  0.70001554     0.36600
C1606       C  0.53576185  0.36453554  0.72360597    -0.25400
C1607       C  0.50925781  0.37262211  0.73728696    -0.14700
C1608       C  0.47012929  0.35522039  0.72851449     0.37700
N1609       N  0.44145717  0.36030067  0.74343611    -0.88900
H1610       H  0.43505590  0.64889683  0.70038456     0.18800
H1611       H  0.56564090  0.37727761  0.73049679     0.18800
N1612       N  0.56516356  0.68407416  0.68047254    -0.87900
H1613       H  0.41894898  0.33207054  0.74966363     0.36100
H1614       H  0.42882333  0.37172785  0.73056503     0.41200
H1615       H  0.57804300  0.67069104  0.69129785     0.40900
H1616       H  0.57947502  0.36397321  0.68241800     0.35800
C1617       C  0.53837994  0.54289531  0.70136419    -0.26000
C1618       C  0.50459407  0.51381856  0.68797522    -0.14000
C1619       C  0.48167380  0.47554614  0.70001132     0.36600
C1620       C  0.49447220  0.46680741  0.72330964    -0.25400
C1621       C  0.52959471  0.49454187  0.73514922    -0.14700
C1622       C  0.55100149  0.53342650  0.72489010     0.37700
N1623       N  0.58551448  0.56306089  0.73806477    -0.88900
H1624       H  0.55544696  0.57295808  0.69344351     0.18800
H1625       H  0.47778177  0.43714757  0.73165169     0.18800
N1626       N  0.44548742  0.44452245  0.68927795    -0.87900
H1627       H  0.60909579  0.57493831  0.72423696     0.36100
H1628       H  0.58046940  0.58604803  0.74371225     0.41200
H1629       H  0.45108565  0.43728022  0.67020673     0.40900
H1630       H  0.42497792  0.45418049  0.68851835     0.35800
Zn1631     Zn  0.41994106  0.83577889  0.62930868     1.49700
Zn1632     Zn  0.41471299  0.91500975  0.62976930     1.49400
Zn1633     Zn  0.49813793  0.91976600  0.62935815     1.49100
Zn1634     Zn  0.44534953  0.89141081  0.57648222     1.49500
O1635       O  0.44446117  0.89055516  0.61561414    -1.83800
O1636       O  0.37870411  0.82533410  0.65697505    -0.74400
O1637       O  0.44613778  0.95710014  0.65674217    -0.74200
O1638       O  0.50775998  0.88749873  0.65571600    -0.73800
O1639       O  0.37141960  0.87803594  0.65447690    -0.74400
O1640       O  0.45579880  0.82720548  0.65261095    -0.74000
O1641       O  0.50506138  0.96246805  0.65407955    -0.74600
O1642       O  0.50442280  0.92033281  0.56314682    -0.74000
O1643       O  0.39408643  0.93556335  0.60051458    -0.74800
O1644       O  0.54000271  0.94046993  0.60020863    -0.74200
O1645       O  0.41665880  0.92133654  0.56331341    -0.74600
O1646       O  0.41541439  0.83268658  0.56306482    -0.74500
O1647       O  0.39798288  0.79507695  0.60003437    -0.74300
C1648       C  0.36395392  0.84572445  0.66582106     0.77500
C1649       C  0.48097343  0.97094351  0.66533604     0.78000
C1650       C  0.48769555  0.85170965  0.66387058     0.76900
C1651       C  0.53783755  0.93793647  0.57488387     0.77300
C1652       C  0.39767787  0.93618731  0.57512790     0.78400
C1653       C  0.39864401  0.79848564  0.57472064     0.77500
C1654       C  0.55480792  0.78037947  0.79525487     0.45800
H1655       H  0.55254101  0.78012798  0.81743375    -0.03200
C1656       C  0.55834527  0.78078207  0.74386342     0.45900
H1657       H  0.55979524  0.78107807  0.72162625    -0.03200
C1658       C  0.59672144  0.79468077  0.78424399    -0.16900
C1659       C  0.52892348  0.73926242  0.78288894    -0.16700
C1660       C  0.54221453  0.80775404  0.78229741    -0.17000
C1661       C  0.59848756  0.79572023  0.75676221    -0.17000
C1662       C  0.53157684  0.73939200  0.75568218    -0.16600
C1663       C  0.54268019  0.80678466  0.75506372    -0.16900
Zn1664     Zn  0.47424741  0.86262879  0.92721256     1.49700
Zn1665     Zn  0.44651648  0.89476486  0.88499047     1.49400
Zn1666     Zn  0.39116154  0.86252916  0.93047092     1.49100
Zn1667     Zn  0.47551355  0.94677822  0.92976606     1.49500
O1668       O  0.44672082  0.89093045  0.92195237    -1.83800
O1669       O  0.48835099  0.84918783  0.89047776    -0.74400
O1670       O  0.40447463  0.84765080  0.86911256    -0.74200
O1671       O  0.37971094  0.81301880  0.95170707    -0.73800
O1672       O  0.49504442  0.90144626  0.86816269    -0.74400
O1673       O  0.43608782  0.81136773  0.94812362    -0.74000
O1674       O  0.35843534  0.84501313  0.89653156    -0.74600
O1675       O  0.43679197  0.95889134  0.95011386    -0.74000
O1676       O  0.43838158  0.93825520  0.87416236    -0.74800
O1677       O  0.37918306  0.90090909  0.95048361    -0.74200
O1678       O  0.49323131  0.97907587  0.89468902    -0.74600
O1679       O  0.52473469  0.95742140  0.95016459    -0.74500
O1680       O  0.52534100  0.90015050  0.94707645    -0.74300
C1681       C  0.49854528  0.87088350  0.86941405     0.77500
C1682       C  0.36922184  0.83871862  0.87375728     0.78000
C1683       C  0.40001950  0.79622521  0.95616742     0.76900
C1684       C  0.39986088  0.93789144  0.95615872     0.77300
C1685       C  0.47063364  0.97076481  0.87477121     0.78400
C1686       C  0.54098610  0.93649255  0.95452072     0.77500
Zn1687     Zn  0.58030692  0.74956385  0.40418444     1.49700
Zn1688     Zn  0.55674143  0.78025227  0.45667147     1.49400
Zn1689     Zn  0.58515077  0.83492349  0.40355052     1.49100
Zn1690     Zn  0.50256500  0.75427970  0.40394086     1.49500
O1691       O  0.55622638  0.78001921  0.41774594    -1.83800
O1692       O  0.60502322  0.73252260  0.43253442    -0.74400
O1693       O  0.58643154  0.83957355  0.46948490    -0.74200
O1694       O  0.62591346  0.84048191  0.37693386    -0.73800
O1695       O  0.58669965  0.75128930  0.46958476    -0.74400
O1696       O  0.61839971  0.78012477  0.37510936    -0.74000
O1697       O  0.60783894  0.87712503  0.43254191    -0.74600
O1698       O  0.49467152  0.79025063  0.38025826    -0.74000
O1699       O  0.49776654  0.75034443  0.47025202    -0.74800
O1700       O  0.55255167  0.84596831  0.37824215    -0.74200
O1701       O  0.46127353  0.73222325  0.43354328    -0.74600
O1702       O  0.49383992  0.71295132  0.37665215    -0.74500
O1703       O  0.54380950  0.70265750  0.38258753    -0.74300
C1704       C  0.60412276  0.73465017  0.45789102     0.77500
C1705       C  0.60506071  0.87393024  0.45795492     0.78000
C1706       C  0.63210139  0.81484768  0.36546726     0.76900
C1707       C  0.51792332  0.82390768  0.36954986     0.77300
C1708       C  0.46397715  0.73333081  0.45889463     0.78400
C1709       C  0.51311711  0.69590061  0.37012406     0.77500
C1710       C  0.43905643  0.88358202  0.28940058     0.45800
H1711       H  0.43446862  0.87941705  0.31141515    -0.03200
C1712       C  0.44803222  0.89191928  0.23831678     0.45900
H1713       H  0.45147613  0.89547031  0.21621574    -0.03200
C1714       C  0.40012740  0.86656263  0.27455173    -0.16900
C1715       C  0.46335970  0.92734732  0.28060280    -0.16700
C1716       C  0.46108973  0.86388089  0.27733998    -0.17000
C1717       C  0.40475049  0.86991650  0.24745103    -0.17000
C1718       C  0.46712886  0.93161426  0.25327106    -0.16600
C1719       C  0.46655083  0.86891284  0.25021936    -0.16900
Zn1720     Zn  0.58421087  0.82988581  0.12226958     1.49700
Zn1721     Zn  0.58199141  0.74769827  0.12358685     1.49400
Zn1722     Zn  0.50118763  0.74906957  0.12452655     1.49100
Zn1723     Zn  0.55444371  0.77420190  0.07046686     1.49500
O1724       O  0.55527304  0.77493625  0.10964333    -1.83800
O1725       O  0.62954222  0.84099510  0.14501566    -0.74400
O1726       O  0.54747901  0.70407214  0.14921531    -0.74200
O1727       O  0.49421851  0.78455102  0.15024107    -0.73800
O1728       O  0.62495553  0.78219461  0.14861545    -0.74400
O1729       O  0.55257086  0.84011721  0.14899715    -0.74000
O1730       O  0.49193715  0.70604466  0.15038817    -0.74600
O1731       O  0.49575159  0.74444900  0.05814465    -0.74000
O1732       O  0.60313136  0.72805186  0.09396065    -0.74800
O1733       O  0.45948278  0.72878593  0.09583598    -0.74200
O1734       O  0.58364756  0.74493907  0.05701193    -0.74600
O1735       O  0.58354149  0.83283941  0.05603317    -0.74500
O1736       O  0.60270286  0.86995297  0.09275342    -0.74300
C1737       C  0.63954004  0.81810505  0.15596056     0.77500
C1738       C  0.51369605  0.69343924  0.15958635     0.78000
C1739       C  0.51831279  0.81878701  0.15928400     0.76900
C1740       C  0.46209399  0.72893364  0.07040987     0.77300
C1741       C  0.60125289  0.72896433  0.06863142     0.78400
C1742       C  0.60067877  0.86686719  0.06751344     0.77500
Zn1743     Zn  0.36001949  0.97207656  0.02687543     1.49700
Zn1744     Zn  0.61235026  0.97116167  0.02545863     1.49400
Zn1745     Zn  0.36103996  0.72062553  0.02722241     1.46500
Zn1746     Zn  0.33486468  0.66705527  0.97311126     1.49500
O1747       O  0.33364147  0.66586627  0.01284013    -1.83800
O1748       O  0.65606128  0.92049944  0.04562922    -0.74400
O1749       O  0.59900504  0.67473146  0.04529795    -0.74200
O1750       O  0.40918965  0.73153621  0.04944854    -0.73800
O1751       O  0.59914162  0.92041489  0.04596922    -0.74400
O1752       O  0.40964172  0.67454441  0.04764778    -0.74000
O1753       O  0.65692374  0.73140657  0.04700497    -0.74600
O1754       O  0.36425146  0.72531652  0.95967137    -0.74000
O1755       O  0.57432409  0.95301492  0.99523112    -0.74800
O1756       O  0.38231471  0.76090157  0.99704154    -0.74200
O1757       O  0.61163591  0.97084934  0.95811112    -0.74600
O1758       O  0.36434160  0.97287283  0.95949568    -0.74500
O1759       O  0.38093393  0.95400612  0.99671854    -0.74300
C1760       C  0.61936618  0.90412563  0.05176992     0.77500
C1761       C  0.61998401  0.71085394  0.05263555     0.78000
C1762       C  0.42511977  0.71075964  0.05497608     0.76900
C1763       C  0.38137251  0.75877436  0.97168871     0.77300
C1764       C  0.57770058  0.95427954  0.96993734     0.78400
C1765       C  0.38082313  0.95612574  0.97144791     0.77500
Zn1766     Zn  0.38881755  0.69605463  0.53089533     1.49700
Zn1767     Zn  0.64144342  0.69883099  0.52939526     1.49400
Zn1768     Zn  0.33654643  0.00402883  0.47745183     1.49100
Zn1769     Zn  0.63994557  0.94618639  0.53054728     1.49500
O1770       O  0.33514459  0.00289628  0.51702982    -1.83800
O1771       O  0.40027420  0.74540880  0.55238120    -0.74400
O1772       O  0.62232659  0.71920398  0.49930108    -0.74200
O1773       O  0.39327808  0.69798109  0.46390504    -0.73800
O1774       O  0.34380514  0.74620356  0.55236421    -0.74400
O1775       O  0.42930286  0.71577587  0.50064112    -0.74000
O1776       O  0.63953687  0.69911406  0.46249192    -0.74600
O1777       O  0.62084097  0.90716644  0.49977250    -0.74000
O1778       O  0.59221718  0.99314836  0.55314654    -0.74800
O1779       O  0.64175034  0.94536393  0.46325196    -0.74200
O1780       O  0.59018985  0.93481084  0.55219774    -0.74600
O1781       O  0.34318418  0.93454978  0.55310996    -0.74500
O1782       O  0.40067964  0.99159211  0.55251687    -0.74300
C1783       C  0.37998223  0.76163737  0.55880524     0.77500
C1784       C  0.62316980  0.71686765  0.47398657     0.78000
C1785       C  0.42689529  0.71463496  0.47531403     0.76900
C1786       C  0.62361587  0.91080994  0.47443414     0.77300
C1787       C  0.57520837  0.95614931  0.55907494     0.78400
C1788       C  0.37961193  0.95497784  0.55929163     0.77500
C1789       C  0.35552091  0.87575637  0.21999233    -0.26000
C1790       C  0.37331330  0.85385261  0.22746271    -0.14000
C1791       C  0.36784538  0.82152641  0.21177766     0.36600
C1792       C  0.66570385  0.80372300  0.19672120    -0.25400
C1793       C  0.66515059  0.83210898  0.17960224    -0.14700
C1794       C  0.33303613  0.86621978  0.19671379     0.37700
N1795       N  0.31504218  0.88912339  0.18973417    -0.88900
H1796       H  0.36000009  0.90103127  0.23177199     0.18800
H1797       H  0.64995811  0.77241741  0.19161898     0.18800
N1798       N  0.38587717  0.79884239  0.21886236    -0.87900
H1799       H  0.33735784  0.91892178  0.18762438     0.36100
H1800       H  0.29631268  0.88719580  0.20554577     0.41200
H1801       H  0.40387807  0.80004211  0.20278427     0.40900
H1802       H  0.66046137  0.76412365  0.24204426     0.35800
C1803       C  0.53088255  0.66845819  0.20002603    -0.26000
C1804       C  0.50163872  0.66972893  0.18472323    -0.14000
C1805       C  0.46505996  0.99049588  0.19730844     0.36600
C1806       C  0.45549295  0.97178797  0.22229410    -0.25400
C1807       C  0.48349778  0.96808170  0.23703920    -0.14700
C1808       C  0.52326212  0.98775505  0.22812097     0.37700
N1809       N  0.55382664  0.98708141  0.24318475    -0.88900
H1810       H  0.56124249  0.68276545  0.19271631     0.18800
H1811       H  0.42490587  0.95666135  0.22911042     0.18800
N1812       N  0.43447357  0.99082254  0.18222730    -0.87900
H1813       H  0.54264793  0.97209134  0.26138241     0.36100
H1814       H  0.57438888  0.01652247  0.24794823     0.41200
H1815       H  0.42074156  0.66802251  0.19313977     0.40900
H1816       H  0.41216547  0.96131947  0.17934125     0.35800
C1817       C  0.48483768  0.80401236  0.20379056    -0.26000
C1818       C  0.50788959  0.83237528  0.18396990    -0.14000
C1819       C  0.52412521  0.87311015  0.18946370     0.36600
C1820       C  0.51431705  0.88453792  0.21349717    -0.25400
C1821       C  0.48826532  0.85615111  0.23220336    -0.14700
C1822       C  0.47536247  0.81557023  0.22815685     0.37700
N1823       N  0.45258232  0.78633007  0.24844116    -0.88900
H1824       H  0.47434884  0.77274218  0.20031041     0.18800
H1825       H  0.52477690  0.91582433  0.21664970     0.18800
N1826       N  0.54911954  0.90294821  0.17025271    -0.87900
H1827       H  0.44533907  0.75782128  0.24208535     0.36100
H1828       H  0.42594548  0.78581228  0.25158711     0.41200
H1829       H  0.57613758  0.92186488  0.17921482     0.40900
H1830       H  0.53597475  0.91978927  0.16550819     0.35800
C1831       C  0.48755921  0.01363976  0.32718086    -0.26000
C1832       C  0.50185207  0.67051754  0.34612940    -0.14000
C1833       C  0.50883872  0.97045602  0.34661923     0.36600
C1834       C  0.49896893  0.94897278  0.32287395    -0.25400
C1835       C  0.48205574  0.95819927  0.30149562    -0.14700
C1836       C  0.47755103  0.99179555  0.30339097     0.37700
N1837       N  0.46184737  0.00324861  0.28180499    -0.88900
H1838       H  0.48397302  0.03949280  0.32850289     0.18800
H1839       H  0.50284740  0.92352477  0.32163168     0.18800
N1840       N  0.53218832  0.63294590  0.36374102    -0.87900
H1841       H  0.48311131  0.03217933  0.27588322     0.36100
H1842       H  0.43697512  0.00406588  0.28884601     0.41200
H1843       H  0.55901185  0.63716655  0.35592911     0.40900
H1844       H  0.51464642  0.60295101  0.36923382     0.35800
C1845       C  0.34092617  0.86955412  0.33088328    -0.26000
C1846       C  0.65292740  0.82488588  0.33921192    -0.14000
C1847       C  0.32499156  0.80134269  0.32364286     0.36600
C1848       C  0.34405447  0.81259802  0.29856094    -0.25400
C1849       C  0.36352443  0.85239998  0.29032123    -0.14700
C1850       C  0.35929720  0.88052598  0.30573670     0.37700
N1851       N  0.37480544  0.92092656  0.29691344    -0.88900
H1852       H  0.66135736  0.88440964  0.33899516     0.18800
H1853       H  0.34664775  0.79077392  0.28653737     0.18800
N1854       N  0.63919871  0.75582013  0.33215066    -0.87900
H1855       H  0.39700933  0.93923236  0.31002713     0.36100
H1856       H  0.38746907  0.92553770  0.27776488     0.41200
H1857       H  0.66167320  0.74889564  0.33357359     0.40900
H1858       H  0.28376762  0.74376422  0.31749392     0.35800
C1859       C  0.51802482  0.87097938  0.30241282    -0.26000
C1860       C  0.47822017  0.84734035  0.29570053    -0.14000
C1861       C  0.45254398  0.81576278  0.31262338     0.36600
C1862       C  0.46604008  0.80958139  0.33669052    -0.25400
C1863       C  0.50517821  0.83465129  0.34466420    -0.14700
C1864       C  0.53185780  0.86537503  0.32690563     0.37700
N1865       N  0.57244229  0.89134850  0.33385820    -0.88900
H1866       H  0.53748102  0.89601672  0.28961034     0.18800
H1867       H  0.44519807  0.78515530  0.34939850     0.18800
N1868       N  0.41191681  0.79086796  0.30600093    -0.87900
H1869       H  0.58698337  0.91387510  0.31949390     0.36100
H1870       H  0.58648633  0.87450722  0.33331733     0.41200
H1871       H  0.39495540  0.79237961  0.32179743     0.40900
H1872       H  0.40603066  0.76150624  0.30495366     0.35800
C1873       C  0.61944677  0.77837810  0.82543846    -0.26000
C1874       C  0.62880942  0.80424085  0.80333724    -0.14000
C1875       C  0.66464468  0.84082288  0.80307455     0.36600
C1876       C  0.68948503  0.85106664  0.82505664    -0.25400
C1877       C  0.34272988  0.82555841  0.85112775    -0.14700
C1878       C  0.64328710  0.78922437  0.84774548     0.37700
N1879       N  0.29170597  0.76496740  0.87489813    -0.88900
H1880       H  0.59218656  0.75028140  0.82616578     0.18800
H1881       H  0.38405145  0.87659107  0.82740002     0.18800
N1882       N  0.67477273  0.86883526  0.78166422    -0.87900
H1883       H  0.62772455  0.77636888  0.88677693     0.36100
H1884       H  0.31226519  0.75634435  0.87934248     0.41200
H1885       H  0.70205721  0.87489937  0.77349410     0.40900
H1886       H  0.67828382  0.89531048  0.78955675     0.35800
C1887       C  0.52906165  0.68727457  0.81015507    -0.26000
C1888       C  0.50783574  0.70458213  0.80052389    -0.14000
C1889       C  0.47371625  0.69868175  0.81433675     0.36600
C1890       C  0.46229465  0.67710290  0.83832259    -0.25400
C1891       C  0.48327457  0.99534363  0.85058566    -0.14700
C1892       C  0.51902732  0.66768271  0.83493743     0.37700
N1893       N  0.54267167  0.65249732  0.84545896    -0.88900
H1894       H  0.55563906  0.69220636  0.79963032     0.18800
H1895       H  0.43071691  0.00008578  0.84967471     0.18800
N1896       N  0.45168807  0.71616997  0.80465464    -0.87900
H1897       H  0.57162096  0.67630746  0.84716906     0.36100
H1898       H  0.54434844  0.96934539  0.83316200     0.41200
H1899       H  0.45089570  0.73455875  0.81960590     0.40900
H1900       H  0.42264518  0.69324537  0.80167787     0.35800
C1901       C  0.49201451  0.81840437  0.80485399    -0.26000
C1902       C  0.53187584  0.83198134  0.79931177    -0.14000
C1903       C  0.56116015  0.86125256  0.81556271     0.36600
C1904       C  0.55006675  0.87459629  0.83827842    -0.25400
C1905       C  0.51010357  0.85833475  0.84507299    -0.14700
C1906       C  0.48087549  0.83122156  0.82780130     0.37700
N1907       N  0.43982760  0.81584582  0.83394246    -0.88900
H1908       H  0.46948012  0.79578191  0.79243726     0.18800
H1909       H  0.57257863  0.89648763  0.85108474     0.18800
N1910       N  0.60217385  0.87615644  0.80959260    -0.87900
H1911       H  0.42600317  0.78482182  0.83540162     0.36100
H1912       H  0.42743706  0.82282650  0.81800705     0.41200
H1913       H  0.61594004  0.90701495  0.80704510     0.40900
H1914       H  0.61460918  0.87049025  0.82612649     0.35800
C1915       C  0.63727228  0.84650272  0.72407418    -0.26000
C1916       C  0.63322082  0.81396828  0.73872194    -0.14000
C1917       C  0.65133810  0.79278460  0.72908706     0.36600
C1918       C  0.67113984  0.80349966  0.70419337    -0.25400
C1919       C  0.34134450  0.83388411  0.69150013    -0.14700
C1920       C  0.65541037  0.85609047  0.69889636     0.37700
N1921       N  0.33117491  0.89201216  0.69020304    -0.88900
H1922       H  0.62270262  0.86223315  0.73117744     0.18800
H1923       H  0.34959665  0.78328396  0.69773769     0.18800
N1924       N  0.64906293  0.75965291  0.74340972    -0.87900
H1925       H  0.66816551  0.91304312  0.69430592     0.36100
H1926       H  0.30277909  0.88783606  0.68824558     0.41200
H1927       H  0.63383958  0.75492169  0.76161310     0.40900
H1928       H  0.67791372  0.76716414  0.74805939     0.35800
C1929       C  0.46592010  0.66451767  0.70578934    -0.26000
C1930       C  0.49248677  0.99399955  0.69050866    -0.14000
C1931       C  0.53448861  0.68364876  0.69679900     0.36600
C1932       C  0.54438493  0.70282297  0.72136912    -0.25400
C1933       C  0.51617342  0.70517323  0.73757121    -0.14700
C1934       C  0.47632930  0.68444898  0.73032225     0.37700
N1935       N  0.44657309  0.68434283  0.74741343    -0.88900
H1936       H  0.43246186  0.97895005  0.70102442     0.18800
H1937       H  0.57512940  0.71874876  0.72688344     0.18800
N1938       N  0.56238657  0.01068091  0.68484362    -0.87900
H1939       H  0.42653740  0.65477376  0.75282118     0.36100
H1940       H  0.43111671  0.69478882  0.73647923     0.41200
H1941       H  0.57405674  0.99699905  0.69660600     0.40900
H1942       H  0.58684756  0.71375916  0.67675774     0.35800
C1943       C  0.53006930  0.86995564  0.70406339    -0.26000
C1944       C  0.49996773  0.83989252  0.68851916    -0.14000
C1945       C  0.48002205  0.80023962  0.69856072     0.36600
C1946       C  0.49201074  0.79164433  0.72236277    -0.25400
C1947       C  0.52358539  0.82104072  0.73666908    -0.14700
C1948       C  0.54204383  0.86073445  0.72797625     0.37700
N1949       N  0.57347649  0.89146808  0.74291657    -0.88900
H1950       H  0.54479721  0.90081698  0.69758104     0.18800
H1951       H  0.47800169  0.76101104  0.72899209     0.18800
N1952       N  0.44831757  0.76763200  0.68496195    -0.87900
H1953       H  0.59824312  0.90643696  0.73022133     0.36100
H1954       H  0.56483048  0.91187192  0.74868579     0.41200
H1955       H  0.45800694  0.76574171  0.66574131     0.40900
H1956       H  0.42429387  0.77232596  0.68405978     0.35800
Zn1957     Zn  0.75161522  0.16882007  0.62997888     1.49700
Zn1958     Zn  0.74619964  0.24765630  0.63019657     1.49400
Zn1959     Zn  0.83016023  0.25377063  0.62894805     1.49100
Zn1960     Zn  0.77696702  0.22399642  0.57679829     1.49500
O1961       O  0.77611291  0.22352548  0.61592852    -1.83800
O1962       O  0.70738576  0.15574551  0.65617386    -0.74400
O1963       O  0.77798595  0.29149974  0.65591328    -0.74200
O1964       O  0.84099737  0.22244014  0.65536758    -0.73800
O1965       O  0.70367382  0.21062565  0.65530336    -0.74400
O1966       O  0.78765929  0.16274763  0.65434707    -0.74000
O1967       O  0.83730820  0.29788797  0.65243598    -0.74600
O1968       O  0.83564825  0.25310713  0.56266602    -0.74000
O1969       O  0.72504880  0.26733049  0.60097988    -0.74800
O1970       O  0.87154496  0.27387366  0.59947916    -0.74200
O1971       O  0.74823850  0.25363258  0.56383104    -0.74600
O1972       O  0.74764976  0.16528111  0.56374583    -0.74500
O1973       O  0.73322307  0.12812707  0.60076184    -0.74300
C1974       C  0.69354951  0.17678454  0.66539031     0.77500
C1975       C  0.81352622  0.30705420  0.66340971     0.78000
C1976       C  0.82067880  0.18710139  0.66435448     0.76900
C1977       C  0.86919153  0.27104264  0.57418861     0.77300
C1978       C  0.72911275  0.26829476  0.57563399     0.78400
C1979       C  0.73294021  0.13129441  0.57548739     0.77500
C1980       C  0.88875705  0.11450315  0.79429420     0.45800
H1981       H  0.88513120  0.11346924  0.81641326    -0.03200
C1982       C  0.89609843  0.11721230  0.74299045     0.45900
H1983       H  0.89926473  0.11877698  0.72081349    -0.03200
C1984       C  0.93145404  0.12951696  0.78460570    -0.16900
C1985       C  0.86385294  0.07377045  0.78105268    -0.16700
C1986       C  0.87671652  0.14206631  0.78090769    -0.17000
C1987       C  0.93514309  0.13138301  0.75722496    -0.17000
C1988       C  0.86834116  0.07519488  0.75379259    -0.16600
C1989       C  0.87970200  0.14271166  0.75376688    -0.16900
Zn1990     Zn  0.80706172  0.19637200  0.92560370     1.49700
Zn1991     Zn  0.78021699  0.22885842  0.88205772     1.49400
Zn1992     Zn  0.72446659  0.19665776  0.92801914     1.49100
Zn1993     Zn  0.81001207  0.28141876  0.92697824     1.49500
O1994       O  0.78008890  0.22515573  0.91927439    -1.83800
O1995       O  0.82047295  0.18149369  0.88913917    -0.74400
O1996       O  0.73705978  0.18313566  0.86539148    -0.74200
O1997       O  0.71226483  0.14680900  0.94977817    -0.73800
O1998       O  0.82841620  0.23383195  0.86622994    -0.74400
O1999       O  0.76886068  0.14564236  0.94707487    -0.74000
O2000       O  0.69154531  0.17942945  0.89394310    -0.74600
O2001       O  0.77116784  0.29371685  0.94744133    -0.74000
O2002       O  0.77490807  0.27362219  0.87021747    -0.74800
O2003       O  0.71352360  0.23563292  0.94818634    -0.74200
O2004       O  0.82902163  0.31407136  0.89158970    -0.74600
O2005       O  0.85897237  0.29157959  0.94809709    -0.74500
O2006       O  0.85831352  0.23367332  0.94567086    -0.74300
C2007       C  0.83103946  0.20281805  0.86788912     0.77500
C2008       C  0.70183575  0.17383567  0.87074737     0.78000
C2009       C  0.73269010  0.13030701  0.95488358     0.76900
C2010       C  0.73430940  0.27262699  0.95383689     0.77300
C2011       C  0.80722624  0.30599125  0.87121599     0.78400
C2012       C  0.87451427  0.27011217  0.95300920     0.77500
Zn2013     Zn  0.91633330  0.08174920  0.40513072     1.49700
Zn2014     Zn  0.89295091  0.11240012  0.45806502     1.49400
Zn2015     Zn  0.92296101  0.16678370  0.40447255     1.49100
Zn2016     Zn  0.83919415  0.08746518  0.40636233     1.49500
O2017       O  0.89295122  0.11235693  0.41927341    -1.83800
O2018       O  0.94264202  0.06626987  0.43291358    -0.74400
O2019       O  0.92225781  0.17174026  0.47064970    -0.74200
O2020       O  0.96681774  0.17375422  0.37975601    -0.73800
O2021       O  0.92240490  0.08277907  0.47020559    -0.74400
O2022       O  0.95175316  0.11122788  0.37437988    -0.74000
O2023       O  0.94219907  0.20889156  0.43345316    -0.74600
O2024       O  0.83215160  0.12212359  0.38114730    -0.74000
O2025       O  0.83402832  0.08313266  0.47212432    -0.74800
O2026       O  0.89122175  0.17614660  0.37742124    -0.74200
O2027       O  0.79792467  0.06780801  0.43545523    -0.74600
O2028       O  0.82840728  0.04352171  0.38175328    -0.74500
O2029       O  0.87833689  0.03276845  0.38626917    -0.74300
C2030       C  0.94055669  0.06705979  0.45827803     0.77500
C2031       C  0.93950864  0.20595171  0.45888348     0.78000
C2032       C  0.96903296  0.14708972  0.36629933     0.76900
C2033       C  0.85611453  0.15460064  0.36937774     0.77300
C2034       C  0.80034123  0.06781701  0.46072450     0.78400
C2035       C  0.84655310  0.02539369  0.37515941     0.77500
C2036       C  0.77503664  0.21662753  0.29018044     0.45800
H2037       H  0.77076542  0.21371548  0.31226201    -0.03200
C2038       C  0.78432360  0.22294587  0.23903915     0.45900
H2039       H  0.78824201  0.22590891  0.21693607    -0.03200
C2040       C  0.73597758  0.19831211  0.27514056    -0.16900
C2041       C  0.79890868  0.25999944  0.28040715    -0.16700
C2042       C  0.79754068  0.19685976  0.27896112    -0.17000
C2043       C  0.74087756  0.20063055  0.24793374    -0.17000
C2044       C  0.80277130  0.26313139  0.25309468    -0.16600
C2045       C  0.80316717  0.20096937  0.25188705    -0.16900
Zn2046     Zn  0.91669190  0.16180913  0.12327531     1.49700
Zn2047     Zn  0.91348144  0.07948337  0.12487495     1.49400
Zn2048     Zn  0.83304615  0.08071888  0.12555751     1.49100
Zn2049     Zn  0.88723918  0.10727727  0.07172530     1.49500
O2050       O  0.88734100  0.10701162  0.11079874    -1.83800
O2051       O  0.96219971  0.17307127  0.14564258    -0.74400
O2052       O  0.88036199  0.03927331  0.15289620    -0.74200
O2053       O  0.82613370  0.11628688  0.15126259    -0.73800
O2054       O  0.95843592  0.11455844  0.14818230    -0.74400
O2055       O  0.88548540  0.17069166  0.15051038    -0.74000
O2056       O  0.82344281  0.03833667  0.15231625    -0.74600
O2057       O  0.82894977  0.07762528  0.05904046    -0.74000
O2058       O  0.93243134  0.05769094  0.09533464    -0.74800
O2059       O  0.79180463  0.06047730  0.09642889    -0.74200
O2060       O  0.91743273  0.07911870  0.05836177    -0.74600
O2061       O  0.91576864  0.16583152  0.05754334    -0.74500
O2062       O  0.93479663  0.20270165  0.09430569    -0.74300
C2063       C  0.97261137  0.15018756  0.15601287     0.77500
C2064       C  0.84652062  0.02863862  0.16316137     0.78000
C2065       C  0.85119074  0.14984747  0.16075633     0.76900
C2066       C  0.79504894  0.06152760  0.07099059     0.77300
C2067       C  0.93296593  0.06107305  0.07000904     0.78400
C2068       C  0.93275417  0.19977795  0.06906961     0.77500
Zn2069     Zn  0.69416727  0.30498648  0.02548222     1.49700
Zn2070     Zn  0.94469453  0.30276464  0.02493388     1.49400
Zn2071     Zn  0.69554952  0.05453370  0.02639222     1.46500
Zn2072     Zn  0.66900065  0.00081005  0.97246336     1.49500
O2073       O  0.66798282  0.99962836  0.01220485    -1.83800
O2074       O  0.98871342  0.25389463  0.04815964    -0.74400
O2075       O  0.93244682  0.00725868  0.04737811    -0.74200
O2076       O  0.74389408  0.06523381  0.04836312    -0.73800
O2077       O  0.93109972  0.25226167  0.04599322    -0.74400
O2078       O  0.74239335  0.00721501  0.04844687    -0.74000
O2079       O  0.98910610  0.06522560  0.04787708    -0.74600
O2080       O  0.69732305  0.05926053  0.95888896    -0.74000
O2081       O  0.90693111  0.28482639  0.99426343    -0.74800
O2082       O  0.71578309  0.09520071  0.99608600    -0.74200
O2083       O  0.94525031  0.30407597  0.95766580    -0.74600
O2084       O  0.69796821  0.30671595  0.95798457    -0.74500
O2085       O  0.71580121  0.28823319  0.99483442    -0.74300
C2086       C  0.95165727  0.23696525  0.05327176     0.77500
C2087       C  0.95244018  0.04372788  0.05405690     0.78000
C2088       C  0.75857906  0.04375339  0.05508742     0.76900
C2089       C  0.71424458  0.09290729  0.97071644     0.77300
C2090       C  0.91092597  0.28721789  0.96898533     0.78400
C2091       C  0.71531994  0.29056928  0.96956953     0.77500
Zn2092     Zn  0.72346073  0.02928137  0.53160249     1.49700
Zn2093     Zn  0.97585428  0.03033864  0.52963441     1.49400
Zn2094     Zn  0.67019664  0.33647033  0.47757675     1.49100
Zn2095     Zn  0.97234467  0.27974239  0.53077184     1.49500
O2096       O  0.66878645  0.33575920  0.51717833    -1.83800
O2097       O  0.73477239  0.07762582  0.55414129    -0.74400
O2098       O  0.95698475  0.04998858  0.49947299    -0.74200
O2099       O  0.72956090  0.03306249  0.46509110    -0.73800
O2100       O  0.67904551  0.07971872  0.55239291    -0.74400
O2101       O  0.76486337  0.05020204  0.50211802    -0.74000
O2102       O  0.97588828  0.03157087  0.46261647    -0.74600
O2103       O  0.95405790  0.23993848  0.50042161    -0.74000
O2104       O  0.92302757  0.32604401  0.55176505    -0.74800
O2105       O  0.97377709  0.27735389  0.46352718    -0.74200
O2106       O  0.92220097  0.26826471  0.55212934    -0.74600
O2107       O  0.67508367  0.26758830  0.55394118    -0.74500
O2108       O  0.73350367  0.32375240  0.55244604    -0.74300
C2109       C  0.71473691  0.09443344  0.55970768     0.77500
C2110       C  0.95896915  0.04870015  0.47418434     0.78000
C2111       C  0.76297348  0.04943531  0.47680584     0.76900
C2112       C  0.95670168  0.24306236  0.47505519     0.77300
C2113       C  0.90652062  0.28925857  0.55826611     0.78400
C2114       C  0.71165597  0.28746729  0.55977228     0.77500
C2115       C  0.68432000  0.19969693  0.22469659    -0.26000
C2116       C  0.70999215  0.18470127  0.22740007    -0.14000
C2117       C  0.71186959  0.16053691  0.20709081     0.36600
C2118       C  0.01476090  0.14088713  0.18816565    -0.25400
C2119       C  0.99824117  0.16355783  0.17960094    -0.14700
C2120       C  0.66128289  0.19147402  0.20172003     0.37700
N2121       N  0.63415979  0.20587669  0.19988538    -0.88900
H2122       H  0.68301542  0.21878720  0.23996242     0.18800
H2123       H  0.01157326  0.11603797  0.17639568     0.18800
N2124       N  0.73699252  0.14394129  0.20944482    -0.87900
H2125       H  0.65019162  0.23690424  0.20152740     0.36100
H2126       H  0.61431189  0.19442609  0.21613412     0.41200
H2127       H  0.75669617  0.15382091  0.19306701     0.40900
H2128       H  0.03013051  0.09705554  0.22198192     0.35800
C2129       C  0.86347951  0.00129938  0.20272966    -0.26000
C2130       C  0.83583806  0.00825975  0.18971553    -0.14000
C2131       C  0.79836950  0.31945922  0.19621771     0.36600
C2132       C  0.78973565  0.30157137  0.22149875    -0.25400
C2133       C  0.81845740  0.29880784  0.23607749    -0.14700
C2134       C  0.85778983  0.31771575  0.22621335     0.37700
N2135       N  0.88895062  0.31734625  0.24074129    -0.88900
H2136       H  0.89159336  0.00942289  0.19310709     0.18800
H2137       H  0.75924628  0.28619403  0.22868346     0.18800
N2138       N  0.76716518  0.31893534  0.18139187    -0.87900
H2139       H  0.87862309  0.30328961  0.25928547     0.36100
H2140       H  0.91010259  0.34693874  0.24472734     0.41200
H2141       H  0.77132133  0.03020901  0.20702816     0.40900
H2142       H  0.74482148  0.28926212  0.17916185     0.35800
C2143       C  0.81945173  0.13507573  0.20582833    -0.26000
C2144       C  0.84213058  0.16337073  0.18589211    -0.14000
C2145       C  0.85968103  0.20415404  0.19160346     0.36600
C2146       C  0.85151608  0.21583649  0.21604903    -0.25400
C2147       C  0.82502853  0.18768627  0.23463059    -0.14700
C2148       C  0.81072867  0.14689684  0.23035182     0.37700
N2149       N  0.78587447  0.11769182  0.25009241    -0.88900
H2150       H  0.80797425  0.10372687  0.20206787     0.18800
H2151       H  0.86280054  0.24719034  0.21935088     0.18800
N2152       N  0.88412489  0.23384044  0.17213605    -0.87900
H2153       H  0.77806272  0.08907229  0.24374597     0.36100
H2154       H  0.75955977  0.11833689  0.25203062     0.41200
H2155       H  0.91174884  0.25225070  0.18051856     0.40900
H2156       H  0.87133256  0.25123977  0.16812176     0.35800
C2157       C  0.82040134  0.34511993  0.32680839    -0.26000
C2158       C  0.83308967  0.99921251  0.35177204    -0.14000
C2159       C  0.84951276  0.30751343  0.34396340     0.36600
C2160       C  0.83912105  0.28546985  0.32046716    -0.25400
C2161       C  0.81831148  0.29187236  0.30037321    -0.14700
C2162       C  0.81045717  0.32320798  0.30305534     0.37700
N2163       N  0.79176044  0.33238475  0.28217652    -0.88900
H2164       H  0.81388068  0.36900943  0.32882172     0.18800
H2165       H  0.84591854  0.26189159  0.31847535     0.18800
N2166       N  0.86465338  0.96152399  0.36716729    -0.87900
H2167       H  0.81118722  0.36161391  0.27578149     0.36100
H2168       H  0.76652540  0.33163181  0.29013214     0.41200
H2169       H  0.87066488  0.93958597  0.36049526     0.40900
H2170       H  0.84601283  0.94976333  0.38399940     0.35800
C2171       C  0.67343405  0.19849959  0.33069610    -0.26000
C2172       C  0.98943082  0.15762269  0.33974543    -0.14000
C2173       C  0.65938513  0.13094597  0.32344379     0.36600
C2174       C  0.67959917  0.14302788  0.29868808    -0.25400
C2175       C  0.69891756  0.18303981  0.29077327    -0.14700
C2176       C  0.69321366  0.21034311  0.30604979     0.37700
N2177       N  0.70858320  0.25086578  0.29764111    -0.88900
H2178       H  0.00109038  0.21831007  0.34168694     0.18800
H2179       H  0.68324554  0.12174183  0.28677616     0.18800
N2180       N  0.97412888  0.08819026  0.33105543    -0.87900
H2181       H  0.72998294  0.26894078  0.31141983     0.36100
H2182       H  0.72225219  0.25623755  0.27888722     0.41200
H2183       H  0.99119066  0.08750202  0.34664469     0.40900
H2184       H  0.61999987  0.07295907  0.31683685     0.35800
C2185       C  0.85479094  0.20115191  0.30245207    -0.26000
C2186       C  0.81418470  0.18009084  0.29752331    -0.14000
C2187       C  0.78850937  0.14943579  0.31501079     0.36600
C2188       C  0.80288264  0.14224133  0.33828132    -0.25400
C2189       C  0.84302640  0.16504649  0.34461821    -0.14700
C2190       C  0.86971054  0.19377271  0.32580593     0.37700
N2191       N  0.91154360  0.21544210  0.33038766    -0.88900
H2192       H  0.87447719  0.22496962  0.28890622     0.18800
H2193       H  0.78201800  0.11891604  0.35167314     0.18800
N2194       N  0.74725266  0.12629545  0.30966582    -0.87900
H2195       H  0.92653349  0.23627625  0.31508630     0.36100
H2196       H  0.92152721  0.19506940  0.32935759     0.41200
H2197       H  0.73203133  0.12902495  0.32612956     0.40900
H2198       H  0.73966649  0.09642539  0.30838234     0.35800
C2199       C  0.95305415  0.11142545  0.82567321    -0.26000
C2200       C  0.96253746  0.13869601  0.80446281    -0.14000
C2201       C  0.99795118  0.17557460  0.80525267     0.36600
C2202       C  0.02228942  0.18470997  0.82740546    -0.25400
C2203       C  0.67438579  0.16044004  0.84858649    -0.14700
C2204       C  0.97687340  0.12057412  0.84801517     0.37700
N2205       N  0.62935063  0.09555508  0.87049710    -0.88900
H2206       H  0.92611091  0.08299909  0.82538347     0.18800
H2207       H  0.71134534  0.21440682  0.82593534     0.18800
N2208       N  0.00841870  0.20470847  0.78454339    -0.87900
H2209       H  0.93865454  0.08594514  0.87720093     0.36100
H2210       H  0.65228944  0.08955755  0.87273747     0.41200
H2211       H  0.03593623  0.21133735  0.77648311     0.40900
H2212       H  0.01167308  0.23071499  0.79309130     0.35800
C2213       C  0.86392741  0.02042804  0.80709764    -0.26000
C2214       C  0.84271868  0.03826044  0.79826338    -0.14000
C2215       C  0.80888953  0.03193977  0.81276539     0.36600
C2216       C  0.79825035  0.01016260  0.83672025    -0.25400
C2217       C  0.82014478  0.33121335  0.84721295    -0.14700
C2218       C  0.85434258  0.00014000  0.83170164     0.37700
N2219       N  0.87751042  0.98371894  0.84108939    -0.88900
H2220       H  0.89021718  0.02545809  0.79612743     0.18800
H2221       H  0.77064358  0.34097203  0.84917715     0.18800
N2222       N  0.78623679  0.04910913  0.80384066    -0.87900
H2223       H  0.90683238  0.00688356  0.84239359     0.36100
H2224       H  0.87440736  0.29892015  0.82573137     0.41200
H2225       H  0.78506714  0.06646476  0.81932673     0.40900
H2226       H  0.75729464  0.02587113  0.80077710     0.35800
C2227       C  0.82443604  0.14794573  0.80455254    -0.26000
C2228       C  0.86437239  0.16512633  0.79737729    -0.14000
C2229       C  0.89314172  0.19735457  0.81198031     0.36600
C2230       C  0.88190432  0.20992902  0.83498535    -0.25400
C2231       C  0.84244294  0.18977411  0.84377668    -0.14700
C2232       C  0.81323183  0.15973840  0.82795109     0.37700
N2233       N  0.77232174  0.14095361  0.83580793    -0.88900
H2234       H  0.80226414  0.12375759  0.79289540     0.18800
H2235       H  0.90412392  0.23437923  0.84649081     0.18800
N2236       N  0.93398742  0.21610912  0.80407396    -0.87900
H2237       H  0.76146336  0.11045164  0.83795632     0.36100
H2238       H  0.75698146  0.14503178  0.82036389     0.41200
H2239       H  0.94422301  0.24631571  0.80069917     0.40900
H2240       H  0.94959060  0.21379034  0.82004320     0.35800
C2241       C  0.97900675  0.18300308  0.72657953    -0.26000
C2242       C  0.97110460  0.14842403  0.74033624    -0.14000
C2243       C  0.98540484  0.12428734  0.72978604     0.36600
C2244       C  0.00363896  0.13325957  0.70433976    -0.25400
C2245       C  0.66897314  0.16408354  0.69025294    -0.14700
C2246       C  0.99647698  0.19166453  0.70114996     0.37700
N2247       N  0.64988708  0.21542444  0.68405809    -0.88900
H2248       H  0.96796861  0.20150664  0.73463137     0.18800
H2249       H  0.68199318  0.11747367  0.69969345     0.18800
N2250       N  0.98012355  0.08954082  0.74367101    -0.87900
H2251       H  0.01906226  0.25123070  0.69913256     0.36100
H2252       H  0.62016959  0.20692288  0.68172818     0.41200
H2253       H  0.96650666  0.08651357  0.76236482     0.40900
H2254       H  0.00819843  0.09389644  0.74734853     0.35800
C2255       C  0.80161224  0.00102133  0.70335090    -0.26000
C2256       C  0.82658076  0.33323225  0.68708070    -0.14000
C2257       C  0.87042050  0.02303309  0.69229940     0.36600
C2258       C  0.88083679  0.04152360  0.71711804    -0.25400
C2259       C  0.85279279  0.04214251  0.73455750    -0.14700
C2260       C  0.81264617  0.02083655  0.72794822     0.37700
N2261       N  0.78316709  0.01970891  0.74584876    -0.88900
H2262       H  0.76692110  0.31352732  0.70157166     0.18800
H2263       H  0.91168468  0.05833577  0.72204161     0.18800
N2264       N  0.89715585  0.35884024  0.67527194    -0.87900
H2265       H  0.76374742  0.98996471  0.75110721     0.36100
H2266       H  0.76695143  0.02997815  0.73559588     0.41200
H2267       H  0.91384890  0.34894680  0.68531202     0.40900
H2268       H  0.90119315  0.04265790  0.65745967     0.35800
C2269       C  0.86626688  0.20542405  0.70268713    -0.26000
C2270       C  0.83436041  0.17545893  0.68832082    -0.14000
C2271       C  0.81460461  0.13595153  0.69865424     0.36600
C2272       C  0.82803874  0.12746291  0.72182695    -0.25400
C2273       C  0.86082958  0.15684307  0.73516379    -0.14700
C2274       C  0.87976815  0.19627015  0.72588928     0.37700
N2275       N  0.91322726  0.22674773  0.73949048    -0.88900
H2276       H  0.88122005  0.23610645  0.69580378     0.18800
H2277       H  0.81386175  0.09699011  0.72883433     0.18800
N2278       N  0.78162291  0.10338205  0.68595879    -0.87900
H2279       H  0.93692172  0.24019372  0.72581617     0.36100
H2280       H  0.90639217  0.24836647  0.74560786     0.41200
H2281       H  0.78974081  0.10100709  0.66637715     0.40900
H2282       H  0.75776801  0.10844371  0.68612417     0.35800
Zn2283     Zn  0.75468002  0.50360318  0.62735040     1.49700
Zn2284     Zn  0.74573919  0.58014162  0.62802228     1.49400
Zn2285     Zn  0.83010264  0.58896736  0.62725188     1.49100
Zn2286     Zn  0.77807992  0.55835583  0.57453496     1.49500
O2287       O  0.77694183  0.55781355  0.61350151    -1.83800
O2288       O  0.71316902  0.49182864  0.65512902    -0.74400
O2289       O  0.77625369  0.62106304  0.65612125    -0.74200
O2290       O  0.83846615  0.55882133  0.65593151    -0.73800
O2291       O  0.70062653  0.54092361  0.65057487    -0.74400
O2292       O  0.79189924  0.49653086  0.64963400    -0.74000
O2293       O  0.83778240  0.63530622  0.64844937    -0.74600
O2294       O  0.83711965  0.58713236  0.56122706    -0.74000
O2295       O  0.72629080  0.60165805  0.59892968    -0.74800
O2296       O  0.87215366  0.60646621  0.59851372    -0.74200
O2297       O  0.74910650  0.58794373  0.56157377    -0.74600
O2298       O  0.74883393  0.49963142  0.56144367    -0.74500
O2299       O  0.73415717  0.46275668  0.59858774    -0.74300
C2300       C  0.69545789  0.50999040  0.66276613     0.77500
C2301       C  0.81261765  0.63964937  0.66212787     0.78000
C2302       C  0.82079425  0.52238570  0.66281055     0.76900
C2303       C  0.87034807  0.60400779  0.57319255     0.77300
C2304       C  0.73004892  0.60257490  0.57356512     0.78400
C2305       C  0.73383849  0.46572859  0.57333778     0.77500
C2306       C  0.88388257  0.44983823  0.79456523     0.45800
H2307       H  0.87957525  0.44875978  0.81662577    -0.03200
C2308       C  0.89226964  0.45281887  0.74331625     0.45900
H2309       H  0.89578349  0.45455358  0.72116328    -0.03200
C2310       C  0.92691484  0.46579928  0.78535608    -0.16900
C2311       C  0.86013387  0.40907510  0.78127181    -0.16700
C2312       C  0.87133819  0.47668792  0.78097848    -0.17000
C2313       C  0.93122643  0.46792076  0.75792175    -0.17000
C2314       C  0.86513917  0.41056095  0.75402598    -0.16600
C2315       C  0.87478878  0.47745467  0.75395826    -0.16900
Zn2316     Zn  0.80456660  0.52787288  0.92577612     1.49700
Zn2317     Zn  0.77888994  0.56204410  0.88372466     1.49400
Zn2318     Zn  0.72140687  0.52737865  0.92738945     1.49100
Zn2319     Zn  0.80753226  0.61189178  0.92830789     1.49500
O2320       O  0.77732153  0.55613820  0.92044872    -1.83800
O2321       O  0.81601201  0.51347867  0.88883549    -0.74400
O2322       O  0.73801899  0.51643278  0.86553024    -0.74200
O2323       O  0.70963276  0.47840163  0.94960247    -0.73800
O2324       O  0.82878748  0.56974721  0.86916877    -0.74400
O2325       O  0.76644695  0.47744173  0.94694409    -0.74000
O2326       O  0.68949607  0.50799465  0.89284867    -0.74600
O2327       O  0.76849938  0.62397607  0.94771495    -0.74000
O2328       O  0.77211877  0.60639000  0.87333987    -0.74800
O2329       O  0.70983938  0.56691348  0.94624250    -0.74200
O2330       O  0.82791451  0.64477619  0.89342590    -0.74600
O2331       O  0.85572429  0.62186264  0.94961943    -0.74500
O2332       O  0.85672419  0.56502845  0.94521267    -0.74300
C2333       C  0.82839309  0.53706093  0.86871543     0.77500
C2334       C  0.70181001  0.50375622  0.87000548     0.78000
C2335       C  0.73027283  0.46213015  0.95468612     0.76900
C2336       C  0.73118334  0.60358859  0.95265187     0.77300
C2337       C  0.80549248  0.63762386  0.87356934     0.78400
C2338       C  0.87221607  0.60104184  0.95338025     0.77500
Zn2339     Zn  0.91865001  0.41858734  0.40392953     1.49700
Zn2340     Zn  0.89257372  0.44778905  0.45631410     1.49400
Zn2341     Zn  0.92108737  0.50248980  0.40273681     1.49100
Zn2342     Zn  0.83910490  0.42098152  0.40396532     1.49500
O2343       O  0.89291497  0.44767522  0.41735846    -1.83800
O2344       O  0.94292890  0.40177699  0.43267904    -0.74400
O2345       O  0.92236659  0.50712661  0.46883837    -0.74200
O2346       O  0.96225676  0.50899935  0.37607360    -0.73800
O2347       O  0.92159444  0.41811778  0.46947796    -0.74400
O2348       O  0.95618312  0.44924936  0.37432875    -0.74000
O2349       O  0.94277011  0.54469968  0.43182592    -0.74600
O2350       O  0.83159338  0.45514035  0.37829393    -0.74000
O2351       O  0.83352248  0.41831916  0.47009930    -0.74800
O2352       O  0.88819911  0.51238116  0.37682855    -0.74200
O2353       O  0.79722221  0.40028892  0.43339803    -0.74600
O2354       O  0.83055485  0.37808017  0.37860492    -0.74500
O2355       O  0.88280656  0.37090104  0.38277653    -0.74300
C2356       C  0.93997798  0.40229193  0.45802960     0.77500
C2357       C  0.94031616  0.54146978  0.45726131     0.78000
C2358       C  0.96858665  0.48361004  0.36437578     0.76900
C2359       C  0.85410976  0.48906672  0.36769795     0.77300
C2360       C  0.79972736  0.40146316  0.45876032     0.78400
C2361       C  0.85072357  0.36223930  0.37149940     0.77500
C2362       C  0.77468058  0.55267955  0.28936941     0.45800
H2363       H  0.77109768  0.54988171  0.31148925    -0.03200
C2364       C  0.78176271  0.55847878  0.23811555     0.45900
H2365       H  0.78423337  0.56087634  0.21593890    -0.03200
C2366       C  0.73520049  0.53562436  0.27522438    -0.16900
C2367       C  0.79938318  0.59587507  0.27937296    -0.16700
C2368       C  0.79544520  0.53151875  0.27746264    -0.17000
C2369       C  0.73896069  0.53786521  0.24814537    -0.17000
C2370       C  0.80217451  0.59884174  0.25201958    -0.16600
C2371       C  0.79996460  0.53528472  0.25022759    -0.16900
Zn2372     Zn  0.91474015  0.49557208  0.12223256     1.49700
Zn2373     Zn  0.91591557  0.41482438  0.12336314     1.49400
Zn2374     Zn  0.83386744  0.41268240  0.12445111     1.49100
Zn2375     Zn  0.88797299  0.44061910  0.07026290     1.49500
O2376       O  0.88790962  0.44069231  0.10946855    -1.83800
O2377       O  0.95764056  0.50627133  0.14735389    -0.74400
O2378       O  0.88347452  0.37268736  0.15043178    -0.74200
O2379       O  0.82630577  0.44658707  0.15155168    -0.73800
O2380       O  0.96009126  0.45067993  0.14676713    -0.74400
O2381       O  0.88107777  0.50522275  0.14715661    -0.74000
O2382       O  0.82509921  0.36856693  0.14924677    -0.74600
O2383       O  0.82950053  0.41190321  0.05777847    -0.74000
O2384       O  0.93575607  0.39382603  0.09412279    -0.74800
O2385       O  0.79269192  0.39340769  0.09535657    -0.74200
O2386       O  0.91679263  0.41071235  0.05694126    -0.74600
O2387       O  0.91753375  0.49942421  0.05597957    -0.74500
O2388       O  0.93502832  0.53627937  0.09280932    -0.74300
C2389       C  0.97087049  0.48486337  0.15630171     0.77500
C2390       C  0.84864030  0.35923828  0.15979018     0.78000
C2391       C  0.84855957  0.48223347  0.15910945     0.76900
C2392       C  0.79570029  0.39533044  0.06990960     0.77300
C2393       C  0.93398621  0.39448118  0.06881299     0.78400
C2394       C  0.93393417  0.53340480  0.06752680     0.77500
Zn2395     Zn  0.69409875  0.63875424  0.02386606     1.49700
Zn2396     Zn  0.94408833  0.63685240  0.02452042     1.49400
Zn2397     Zn  0.69547274  0.38772861  0.02607454     1.46500
Zn2398     Zn  0.66734590  0.33344370  0.97257753     1.49500
O2399       O  0.66703089  0.33269563  0.01224002    -1.83800
O2400       O  0.98907974  0.58746668  0.04560511    -0.74400
O2401       O  0.93229389  0.33976281  0.04653182    -0.74200
O2402       O  0.74462677  0.39927422  0.04730035    -0.73800
O2403       O  0.93179014  0.58660026  0.04571562    -0.74400
O2404       O  0.74209569  0.34083296  0.04821289    -0.74000
O2405       O  0.98982697  0.39692608  0.04769276    -0.74600
O2406       O  0.69503331  0.39138822  0.95881904    -0.74000
O2407       O  0.90581868  0.61769162  0.99414414    -0.74800
O2408       O  0.71455962  0.42769158  0.99581652    -0.74200
O2409       O  0.94302564  0.63544897  0.95694850    -0.74600
O2410       O  0.69512385  0.63785298  0.95628869    -0.74500
O2411       O  0.71445855  0.62119204  0.99326905    -0.74300
C2412       C  0.95237936  0.57075741  0.05175935     0.77500
C2413       C  0.95289850  0.37620309  0.05326577     0.78000
C2414       C  0.75898509  0.37762746  0.05426393     0.76900
C2415       C  0.71219349  0.42506192  0.97053286     0.77300
C2416       C  0.90907244  0.61872567  0.96881419     0.78400
C2417       C  0.71264404  0.62204575  0.96803624     0.77500
Zn2418     Zn  0.72369467  0.36247541  0.53070332     1.49700
Zn2419     Zn  0.97313001  0.36380972  0.53018086     1.49400
Zn2420     Zn  0.66836735  0.66992212  0.47669513     1.49100
Zn2421     Zn  0.97383554  0.61353398  0.52992360     1.49500
O2422       O  0.66786594  0.66967238  0.51624572    -1.83800
O2423       O  0.73514991  0.41148219  0.55257792    -0.74400
O2424       O  0.95511016  0.38455064  0.49971880    -0.74200
O2425       O  0.72882406  0.36617994  0.46380185    -0.73800
O2426       O  0.67957007  0.41395063  0.55082291    -0.74400
O2427       O  0.76471623  0.38316962  0.50053001    -0.74000
O2428       O  0.97455668  0.36607761  0.46311564    -0.74600
O2429       O  0.95593462  0.57460032  0.49909992    -0.74000
O2430       O  0.92506259  0.65939509  0.55210761    -0.74800
O2431       O  0.97554959  0.61284124  0.46260475    -0.74200
O2432       O  0.92319825  0.60113911  0.55091761    -0.74600
O2433       O  0.67534288  0.60151445  0.55253949    -0.74500
O2434       O  0.73350460  0.65782204  0.55076402    -0.74300
C2435       C  0.71536151  0.42866240  0.55787276     0.77500
C2436       C  0.95765432  0.38345546  0.47440546     0.78000
C2437       C  0.76247003  0.38265183  0.47519170     0.76900
C2438       C  0.95833491  0.57829223  0.47376209     0.77300
C2439       C  0.90797349  0.62229443  0.55770757     0.78400
C2440       C  0.71206135  0.62149510  0.55798879     0.77500
C2441       C  0.69067375  0.54478424  0.22078967    -0.26000
C2442       C  0.70705818  0.52181995  0.22877427    -0.14000
C2443       C  0.70149134  0.48940945  0.21329096     0.36600
C2444       C  0.01937561  0.48030880  0.18483439    -0.25400
C2445       C  0.99674753  0.49815871  0.17970822    -0.14700
C2446       C  0.67018729  0.53670302  0.19672908     0.37700
N2447       N  0.65280653  0.56005026  0.18942142    -0.88900
H2448       H  0.69492169  0.56983824  0.23274601     0.18800
H2449       H  0.01980122  0.45914755  0.17089885     0.18800
N2450       N  0.71676440  0.46474203  0.22172762    -0.87900
H2451       H  0.67513142  0.58995911  0.18853014     0.36100
H2452       H  0.63264852  0.55699534  0.20454339     0.41200
H2453       H  0.73577024  0.46516365  0.20662815     0.40900
H2454       H  0.04736158  0.44101320  0.21235889     0.35800
C2455       C  0.86660933  0.33602217  0.20092010    -0.26000
C2456       C  0.83708074  0.33631155  0.18531873    -0.14000
C2457       C  0.79941514  0.65746276  0.19578542     0.36600
C2458       C  0.79033739  0.63869846  0.22075137    -0.25400
C2459       C  0.81851744  0.63463121  0.23503727    -0.14700
C2460       C  0.85792145  0.65331970  0.22535016     0.37700
N2461       N  0.88855056  0.65138448  0.23948741    -0.88900
H2462       H  0.89689327  0.35008524  0.19348888     0.18800
H2463       H  0.75997478  0.62403180  0.22799307     0.18800
N2464       N  0.76860056  0.65793002  0.18108091    -0.87900
H2465       H  0.87782455  0.63622768  0.25771103     0.36100
H2466       H  0.90998968  0.68048842  0.24418329     0.41200
H2467       H  0.75551275  0.33348656  0.19262290     0.40900
H2468       H  0.74632659  0.62845104  0.17810716     0.35800
C2469       C  0.81694690  0.46864821  0.20445342    -0.26000
C2470       C  0.83871969  0.49628708  0.18390400    -0.14000
C2471       C  0.85502034  0.53723638  0.18886746     0.36600
C2472       C  0.84624399  0.54939964  0.21291894    -0.25400
C2473       C  0.82101527  0.52171977  0.23220888    -0.14700
C2474       C  0.80839813  0.48108495  0.22885306     0.37700
N2475       N  0.78691375  0.45270163  0.24985688    -0.88900
H2476       H  0.80670926  0.43732330  0.20152129     0.18800
H2477       H  0.85675988  0.58075196  0.21559830     0.18800
N2478       N  0.87933020  0.56666586  0.16921969    -0.87900
H2479       H  0.78015384  0.42417761  0.24413946     0.36100
H2480       H  0.75995892  0.45168055  0.25320620     0.41200
H2481       H  0.90668623  0.58578161  0.17771656     0.40900
H2482       H  0.86602094  0.58339625  0.16460766     0.35800
C2483       C  0.82055006  0.67994641  0.32629697    -0.26000
C2484       C  0.83885500  0.33674022  0.34769184    -0.14000
C2485       C  0.84599025  0.63942916  0.34421220     0.36600
C2486       C  0.83803024  0.61943161  0.31997584    -0.25400
C2487       C  0.81923357  0.62755840  0.29933183    -0.14700
C2488       C  0.81203934  0.65933935  0.30204935     0.37700
N2489       N  0.79514138  0.67005332  0.28079540    -0.88900
H2490       H  0.81481101  0.70436743  0.32830343     0.18800
H2491       H  0.84420982  0.59539180  0.31800219     0.18800
N2492       N  0.86977807  0.29920683  0.36423977    -0.87900
H2493       H  0.81520333  0.69955345  0.27528614     0.36100
H2494       H  0.76946893  0.66909478  0.28804363     0.41200
H2495       H  0.89632870  0.30341188  0.35591040     0.40900
H2496       H  0.85242183  0.26921417  0.36978363     0.35800
C2497       C  0.67462514  0.53666155  0.33167511    -0.26000
C2498       C  0.98787557  0.49346650  0.33752496    -0.14000
C2499       C  0.65696783  0.46839917  0.32248539     0.36600
C2500       C  0.67761800  0.48092581  0.29798689    -0.25400
C2501       C  0.69869206  0.52130627  0.29115314    -0.14700
C2502       C  0.69433542  0.54886919  0.30705676     0.37700
N2503       N  0.71060752  0.58973640  0.29917263    -0.88900
H2504       H  0.99970578  0.55421700  0.33906145     0.18800
H2505       H  0.68004910  0.45949873  0.28540764     0.18800
N2506       N  0.96909331  0.42315504  0.32840973    -0.87900
H2507       H  0.73247940  0.60707579  0.31268925     0.36100
H2508       H  0.72370223  0.59504488  0.28006111     0.41200
H2509       H  0.97396329  0.40639939  0.31407072     0.40900
H2510       H  0.61450757  0.41206977  0.31426692     0.35800
C2511       C  0.85248070  0.53385671  0.30010251    -0.26000
C2512       C  0.81169151  0.51402467  0.29581402    -0.14000
C2513       C  0.78582985  0.48467849  0.31407219     0.36600
C2514       C  0.80036989  0.47770820  0.33737519    -0.25400
C2515       C  0.84079150  0.49939245  0.34299425    -0.14700
C2516       C  0.86750706  0.52652099  0.32345034     0.37700
N2517       N  0.90950975  0.54639662  0.32723800    -0.88900
H2518       H  0.87233131  0.55670643  0.28604180     0.18800
H2519       H  0.77950992  0.45555715  0.35141363     0.18800
N2520       N  0.74425660  0.46278670  0.30948402    -0.87900
H2521       H  0.92466541  0.56577792  0.31124811     0.36100
H2522       H  0.91776312  0.52466498  0.32687161     0.41200
H2523       H  0.73007516  0.46704007  0.32596708     0.40900
H2524       H  0.73535543  0.43252416  0.30877964     0.35800
C2525       C  0.94661712  0.44925050  0.82795111    -0.26000
C2526       C  0.95735504  0.47543434  0.80585711    -0.14000
C2527       C  0.99319830  0.51197958  0.80643253     0.36600
C2528       C  0.01734471  0.52124061  0.82868915    -0.25400
C2529       C  0.67573994  0.48882788  0.84699727    -0.14700
C2530       C  0.96989056  0.45918217  0.85057493     0.37700
N2531       N  0.62552463  0.42738633  0.87050564    -0.88900
H2532       H  0.91912509  0.42122602  0.82814422     0.18800
H2533       H  0.71599901  0.54053754  0.82339666     0.18800
N2534       N  0.00443232  0.54070082  0.78536545    -0.87900
H2535       H  0.95347344  0.44607959  0.88943885     0.36100
H2536       H  0.64686650  0.41998751  0.87550914     0.41200
H2537       H  0.03189835  0.54668376  0.77762313     0.40900
H2538       H  0.00802586  0.56709580  0.79349148     0.35800
C2539       C  0.86117949  0.35587988  0.80689707    -0.26000
C2540       C  0.83964422  0.37365182  0.79860283    -0.14000
C2541       C  0.80647890  0.36766440  0.81381678     0.36600
C2542       C  0.79634725  0.34560900  0.83763255    -0.25400
C2543       C  0.81878112  0.66200585  0.84927311    -0.14700
C2544       C  0.85210841  0.33530663  0.83137888     0.37700
N2545       N  0.87553245  0.31887210  0.84021163    -0.88900
H2546       H  0.88733261  0.36117875  0.79562517     0.18800
H2547       H  0.76737482  0.66865552  0.84892141     0.18800
N2548       N  0.78424639  0.38578293  0.80586550    -0.87900
H2549       H  0.90485510  0.34208015  0.84136505     0.36100
H2550       H  0.87796103  0.63371424  0.83145582     0.41200
H2551       H  0.78430964  0.40329912  0.82170324     0.40900
H2552       H  0.75496338  0.36313723  0.80320563     0.35800
C2553       C  0.81956979  0.48296236  0.80470657    -0.26000
C2554       C  0.85933737  0.50017098  0.79715091    -0.14000
C2555       C  0.88843976  0.53266203  0.81138356     0.36600
C2556       C  0.87767715  0.54563899  0.83433809    -0.25400
C2557       C  0.83856303  0.52510944  0.84371691    -0.14700
C2558       C  0.80895954  0.49462905  0.82835994     0.37700
N2559       N  0.76836091  0.47499149  0.83702333    -0.88900
H2560       H  0.79717419  0.45845248  0.79337554     0.18800
H2561       H  0.90017249  0.57013806  0.84566826     0.18800
N2562       N  0.92923475  0.55077480  0.80348398    -0.87900
H2563       H  0.75835873  0.44466490  0.83935140     0.36100
H2564       H  0.75197089  0.47816804  0.82193227     0.41200
H2565       H  0.93989576  0.58102519  0.79990374     0.40900
H2566       H  0.94463999  0.54842524  0.81956028     0.35800
C2567       C  0.97656905  0.52079384  0.72814872    -0.26000
C2568       C  0.96750757  0.48535155  0.74124794    -0.14000
C2569       C  0.98175440  0.46133385  0.73043042     0.36600
C2570       C  0.00109082  0.47131007  0.70535056    -0.25400
C2571       C  0.67190226  0.49743967  0.68801617    -0.14700
C2572       C  0.99627271  0.53114643  0.70340029     0.37700
N2573       N  0.66836303  0.55951951  0.68919932    -0.88900
H2574       H  0.96558381  0.53922860  0.73637998     0.18800
H2575       H  0.67520844  0.44366434  0.69234938     0.18800
N2576       N  0.97554804  0.42583411  0.74374637    -0.87900
H2577       H  0.02123860  0.59105981  0.70360525     0.36100
H2578       H  0.64130789  0.55837943  0.68685833     0.41200
H2579       H  0.96138338  0.42218507  0.76226465     0.40900
H2580       H  0.00337969  0.42965836  0.74771954     0.35800
C2581       C  0.79818622  0.33179174  0.70553991    -0.26000
C2582       C  0.82541953  0.66353491  0.68700619    -0.14000
C2583       C  0.86696698  0.35600239  0.69331704     0.36600
C2584       C  0.87803075  0.37714208  0.71711659    -0.25400
C2585       C  0.85010679  0.37733955  0.73488629    -0.14700
C2586       C  0.80971078  0.35383631  0.72931433     0.37700
N2587       N  0.78047681  0.35324864  0.74719165    -0.88900
H2588       H  0.76568252  0.64421885  0.70075361     0.18800
H2589       H  0.90911905  0.39568179  0.72088296     0.18800
N2590       N  0.89610809  0.68656739  0.67687554    -0.87900
H2591       H  0.76187526  0.32382875  0.75357244     0.36100
H2592       H  0.76340677  0.36205991  0.73654616     0.41200
H2593       H  0.91098369  0.67457150  0.68687125     0.40900
H2594       H  0.91582807  0.38885411  0.67021895     0.35800
C2595       C  0.86395133  0.54053183  0.70239117    -0.26000
C2596       C  0.83244554  0.51073430  0.68769335    -0.14000
C2597       C  0.81082628  0.47157720  0.69865561     0.36600
C2598       C  0.82317765  0.46285465  0.72222732    -0.25400
C2599       C  0.85629574  0.49188184  0.73543754    -0.14700
C2600       C  0.87594419  0.53129085  0.72618993     0.37700
N2601       N  0.90853065  0.56166840  0.74051839    -0.88900
H2602       H  0.87989297  0.57109224  0.69526004     0.18800
H2603       H  0.80796935  0.43245888  0.72960842     0.18800
N2604       N  0.77660409  0.43973971  0.68649165    -0.87900
H2605       H  0.93298216  0.57532503  0.72746394     0.36100
H2606       H  0.90127413  0.58317153  0.74614277     0.41200
H2607       H  0.78439842  0.43451957  0.66748668     0.40900
H2608       H  0.75474023  0.44756989  0.68523396     0.35800
Zn2609     Zn  0.75276109  0.83704906  0.62780603     1.49700
Zn2610     Zn  0.75020903  0.91767524  0.62847199     1.49400
Zn2611     Zn  0.83235061  0.92086931  0.62796206     1.49100
Zn2612     Zn  0.77962645  0.89215048  0.57520423     1.49500
O2613       O  0.77871742  0.89197877  0.61428169    -1.83800
O2614       O  0.70854181  0.82500020  0.65345458    -0.74400
O2615       O  0.78271060  0.96364563  0.65255968    -0.74200
O2616       O  0.84207512  0.88833099  0.65396880    -0.73800
O2617       O  0.70915941  0.88218419  0.65474625    -0.74400
O2618       O  0.78755651  0.82954123  0.65242167    -0.74000
O2619       O  0.83953307  0.96436101  0.65199105    -0.74600
O2620       O  0.83849777  0.92127614  0.56178443    -0.74000
O2621       O  0.72714467  0.93468580  0.59940999    -0.74800
O2622       O  0.87400284  0.94130299  0.59886021    -0.74200
O2623       O  0.75043059  0.92126428  0.56217808    -0.74600
O2624       O  0.75029576  0.83353355  0.56170026    -0.74500
O2625       O  0.73365402  0.79620175  0.59869167    -0.74300
C2626       C  0.69703457  0.84735824  0.66378119     0.77500
C2627       C  0.81723139  0.97653630  0.66138619     0.78000
C2628       C  0.82070916  0.85295114  0.66263455     0.76900
C2629       C  0.87185832  0.93878795  0.57355617     0.77300
C2630       C  0.73076053  0.93524617  0.57408997     0.78400
C2631       C  0.73427961  0.79942509  0.57339630     0.77500
C2632       C  0.88325307  0.77876119  0.79485846     0.45800
H2633       H  0.87955465  0.77847876  0.81694720    -0.03200
C2634       C  0.89056535  0.77961440  0.74361881     0.45900
H2635       H  0.89382201  0.78041997  0.72145673    -0.03200
C2636       C  0.92612467  0.79445500  0.78530564    -0.16900
C2637       C  0.85909469  0.73745120  0.78226005    -0.16700
C2638       C  0.87044418  0.80521229  0.78081958    -0.17000
C2639       C  0.92977251  0.79542315  0.75791548    -0.17000
C2640       C  0.86355129  0.73781430  0.75504129    -0.16600
C2641       C  0.87330865  0.80476799  0.75366103    -0.16900
Zn2642     Zn  0.80769543  0.86264584  0.92661331     1.49700
Zn2643     Zn  0.78211595  0.89547546  0.88295754     1.49400
Zn2644     Zn  0.72522343  0.86310187  0.92773764     1.49100
Zn2645     Zn  0.81078938  0.94767473  0.92723063     1.49500
O2646       O  0.78094362  0.89143844  0.92002486    -1.83800
O2647       O  0.82082655  0.84755396  0.89032384    -0.74400
O2648       O  0.74007949  0.84933880  0.86603321    -0.74200
O2649       O  0.71228309  0.81263432  0.94864414    -0.73800
O2650       O  0.83112575  0.90119843  0.86811006    -0.74400
O2651       O  0.76900176  0.81158940  0.94715143    -0.74000
O2652       O  0.69340355  0.84608249  0.89319890    -0.74600
O2653       O  0.77201621  0.96014763  0.94739809    -0.74000
O2654       O  0.77613684  0.93971462  0.87080065    -0.74800
O2655       O  0.71430499  0.90205749  0.94813409    -0.74200
O2656       O  0.83067285  0.97989045  0.89172204    -0.74600
O2657       O  0.85908546  0.95790840  0.94860831    -0.74500
O2658       O  0.85840365  0.89990355  0.94710918    -0.74300
C2659       C  0.83178283  0.86906823  0.86918848     0.77500
C2660       C  0.70465143  0.83999759  0.87048975     0.78000
C2661       C  0.73243085  0.79593060  0.95393357     0.76900
C2662       C  0.73518298  0.93906120  0.95384553     0.77300
C2663       C  0.80882943  0.97171633  0.87138348     0.78400
C2664       C  0.87444389  0.93650128  0.95406845     0.77500
Zn2665     Zn  0.91515739  0.74881745  0.40479332     1.49700
Zn2666     Zn  0.89018831  0.77887311  0.45681044     1.49400
Zn2667     Zn  0.91907126  0.83365343  0.40342504     1.49100
Zn2668     Zn  0.83714302  0.75350572  0.40385464     1.49500
O2669       O  0.89048042  0.77891765  0.41788066    -1.83800
O2670       O  0.94014403  0.73276975  0.43355325    -0.74400
O2671       O  0.91978202  0.83793082  0.46968900    -0.74200
O2672       O  0.96118887  0.83982559  0.37790822    -0.73800
O2673       O  0.91972623  0.74984666  0.47041004    -0.74400
O2674       O  0.95288844  0.77919592  0.37528766    -0.74000
O2675       O  0.94054120  0.87535972  0.43264157    -0.74600
O2676       O  0.83060648  0.78795251  0.37790044    -0.74000
O2677       O  0.83105512  0.74955194  0.46972428    -0.74800
O2678       O  0.88752949  0.84465079  0.37676946    -0.74200
O2679       O  0.79519329  0.73333457  0.43277782    -0.74600
O2680       O  0.82804759  0.71063254  0.37858255    -0.74500
O2681       O  0.87865531  0.70106148  0.38396725    -0.74300
C2682       C  0.93819652  0.73415714  0.45891224     0.77500
C2683       C  0.93806727  0.87220283  0.45806409     0.78000
C2684       C  0.96703574  0.81422965  0.36604705     0.76900
C2685       C  0.85360591  0.82171319  0.36726371     0.77300
C2686       C  0.79749914  0.73375733  0.45811344     0.78400
C2687       C  0.84747440  0.69383422  0.37198193     0.77500
C2688       C  0.77175890  0.88183852  0.29004383     0.45800
H2689       H  0.76734086  0.87651006  0.31198540    -0.03200
C2690       C  0.78096860  0.89391589  0.23917662     0.45900
H2691       H  0.78438694  0.89911219  0.21720754    -0.03200
C2692       C  0.73276518  0.86398981  0.27505950    -0.16900
C2693       C  0.79460460  0.92622920  0.28236617    -0.16700
C2694       C  0.79523753  0.86430051  0.27690633    -0.17000
C2695       C  0.73773718  0.86997776  0.24810532    -0.17000
C2696       C  0.79890265  0.93244953  0.25526061    -0.16600
C2697       C  0.80023170  0.87079422  0.24977435    -0.16900
Zn2698     Zn  0.91512281  0.83108349  0.12242785     1.49700
Zn2699     Zn  0.91724080  0.75158648  0.12271523     1.49400
Zn2700     Zn  0.83398910  0.74828145  0.12310660     1.49100
Zn2701     Zn  0.88838129  0.77639893  0.06978502     1.49500
O2702       O  0.88847914  0.77664990  0.10890446    -1.83800
O2703       O  0.95744283  0.84186050  0.14802520    -0.74400
O2704       O  0.88501733  0.71086656  0.15051098    -0.74200
O2705       O  0.82457460  0.78206550  0.14912953    -0.73800
O2706       O  0.96264937  0.78797357  0.14545514    -0.74400
O2707       O  0.88057007  0.84002416  0.14674584    -0.74000
O2708       O  0.82611937  0.70549265  0.14852562    -0.74600
O2709       O  0.82990294  0.74736315  0.05662242    -0.74000
O2710       O  0.93529003  0.72862879  0.09340449    -0.74800
O2711       O  0.79279834  0.72710215  0.09395607    -0.74200
O2712       O  0.91719546  0.74662492  0.05632559    -0.74600
O2713       O  0.91853567  0.83530380  0.05641647    -0.74500
O2714       O  0.93623008  0.87188490  0.09345994    -0.74300
C2715       C  0.97198928  0.82121525  0.15609218     0.77500
C2716       C  0.84996970  0.69704088  0.15955838     0.78000
C2717       C  0.84688070  0.81731101  0.15735300     0.76900
C2718       C  0.79592074  0.72951439  0.06853774     0.77300
C2719       C  0.93362782  0.72953085  0.06807263     0.78400
C2720       C  0.93537301  0.86908892  0.06819199     0.77500
Zn2721     Zn  0.69472077  0.97145832  0.02547855     1.49700
Zn2722     Zn  0.94561313  0.97132462  0.02530377     1.49400
Zn2723     Zn  0.69476085  0.72054870  0.02477946     1.46500
Zn2724     Zn  0.66640742  0.66638639  0.97072335     1.49500
O2725       O  0.66652898  0.66584747  0.01045205    -1.83800
O2726       O  0.99088868  0.92263513  0.04642385    -0.74400
O2727       O  0.93169288  0.67404487  0.04639814    -0.74200
O2728       O  0.74396849  0.73237765  0.04620961    -0.73800
O2729       O  0.93365469  0.92202424  0.04646045    -0.74400
O2730       O  0.74275308  0.67463584  0.04637784    -0.74000
O2731       O  0.98859178  0.73191204  0.04559167    -0.74600
O2732       O  0.69594970  0.72483860  0.95717730    -0.74000
O2733       O  0.90722557  0.95178479  0.99512010    -0.74800
O2734       O  0.71476913  0.76037974  0.99457936    -0.74200
O2735       O  0.94491498  0.97205008  0.95819562    -0.74600
O2736       O  0.69969338  0.97399620  0.95803761    -0.74500
O2737       O  0.71632668  0.95433088  0.99489489    -0.74300
C2738       C  0.95420512  0.90627858  0.05260247     0.77500
C2739       C  0.95209720  0.71090251  0.05229088     0.78000
C2740       C  0.75912385  0.71129265  0.05277353     0.76900
C2741       C  0.71333162  0.75829535  0.96925225     0.77300
C2742       C  0.91086406  0.95426051  0.96982811     0.78400
C2743       C  0.71634241  0.95713264  0.96962492     0.77500
Zn2744     Zn  0.72268882  0.69621200  0.52973820     1.49700
Zn2745     Zn  0.97466715  0.69759399  0.53057165     1.49400
Zn2746     Zn  0.67062335  0.00354539  0.47800922     1.49100
Zn2747     Zn  0.97380672  0.94588093  0.53007080     1.49500
O2748       O  0.66885696  0.00229497  0.51754456    -1.83800
O2749       O  0.73510419  0.74532897  0.55181144    -0.74400
O2750       O  0.95523385  0.71777479  0.50049688    -0.74200
O2751       O  0.72672601  0.69907237  0.46282050    -0.73800
O2752       O  0.67959159  0.74794090  0.55070915    -0.74400
O2753       O  0.76266801  0.71623460  0.49956755    -0.74000
O2754       O  0.97501268  0.70020179  0.46363520    -0.74600
O2755       O  0.95443839  0.90593779  0.49973775    -0.74000
O2756       O  0.92630564  0.99357798  0.55166892    -0.74800
O2757       O  0.97462594  0.94346218  0.46288818    -0.74200
O2758       O  0.92413230  0.93516623  0.55136984    -0.74600
O2759       O  0.67628447  0.93340295  0.55230134    -0.74500
O2760       O  0.73366900  0.99068135  0.55243148    -0.74300
C2761       C  0.71547256  0.76249476  0.55761833     0.77500
C2762       C  0.95731409  0.71661101  0.47515025     0.78000
C2763       C  0.76030312  0.71539237  0.47428345     0.76900
C2764       C  0.95674365  0.90915669  0.47436447     0.77300
C2765       C  0.90920514  0.95668214  0.55784639     0.78400
C2766       C  0.71264277  0.95388441  0.55857102     0.77500
C2767       C  0.70538593  0.88356407  0.21130643    -0.26000
C2768       C  0.70672635  0.85538046  0.22791629    -0.14000
C2769       C  0.68671122  0.81512252  0.22053229     0.36600
C2770       C  0.01837286  0.81455465  0.18551694    -0.25400
C2771       C  0.99729597  0.83385537  0.17988590    -0.14700
C2772       C  0.68524136  0.87253025  0.18720116     0.37700
N2773       N  0.68630687  0.90272886  0.17025864    -0.88900
H2774       H  0.72156622  0.91468178  0.21645235     0.18800
H2775       H  0.01858692  0.79325934  0.17160761     0.18800
N2776       N  0.68921383  0.78594199  0.23640009    -0.87900
H2777       H  0.71584301  0.92305937  0.16537336     0.36100
H2778       H  0.67477048  0.91776951  0.18109986     0.41200
H2779       H  0.70102128  0.77234782  0.22432303     0.40900
H2780       H  0.04193979  0.77207664  0.21368188     0.35800
C2781       C  0.86731139  0.67287498  0.20048961    -0.26000
C2782       C  0.83817327  0.67413416  0.18503667    -0.14000
C2783       C  0.80108793  0.00042168  0.20401589     0.36600
C2784       C  0.79246257  0.98119916  0.22888930    -0.25400
C2785       C  0.81805942  0.97037367  0.24032173    -0.14700
C2786       C  0.85544033  0.98365545  0.22819816     0.37700
N2787       N  0.88482242  0.97748659  0.24055391    -0.88900
H2788       H  0.89763000  0.68677168  0.19315620     0.18800
H2789       H  0.76395952  0.97181664  0.23833474     0.18800
N2790       N  0.77401997  0.01122693  0.19339436    -0.87900
H2791       H  0.87528222  0.96480305  0.25949437     0.36100
H2792       H  0.90983440  0.00558749  0.24342693     0.41200
H2793       H  0.75676724  0.67195436  0.19270245     0.40900
H2794       H  0.74634072  0.98548755  0.19203690     0.35800
C2795       C  0.81466164  0.80365395  0.20232370    -0.26000
C2796       C  0.83578675  0.83109891  0.18160488    -0.14000
C2797       C  0.85082452  0.87190238  0.18599333     0.36600
C2798       C  0.84297319  0.88429894  0.21024264    -0.25400
C2799       C  0.81946069  0.85697579  0.23027900    -0.14700
C2800       C  0.80632348  0.81620943  0.22672363     0.37700
N2801       N  0.78402526  0.78769365  0.24743540    -0.88900
H2802       H  0.80477606  0.77237399  0.19951203     0.18800
H2803       H  0.85291867  0.91548106  0.21248920     0.18800
N2804       N  0.87288258  0.90086572  0.16552647    -0.87900
H2805       H  0.77721141  0.75908827  0.24171280     0.36100
H2806       H  0.75713998  0.78696003  0.24996149     0.41200
H2807       H  0.90052416  0.92129612  0.17310173     0.40900
H2808       H  0.85804739  0.91622643  0.16124161     0.35800
C2809       C  0.81413809  0.00797589  0.33151325    -0.26000
C2810       C  0.83637586  0.66939435  0.34775470    -0.14000
C2811       C  0.84363319  0.96993983  0.34737253     0.36600
C2812       C  0.83304780  0.94876732  0.32344386    -0.25400
C2813       C  0.81248342  0.95620009  0.30370097    -0.14700
C2814       C  0.80427537  0.98718565  0.30743217     0.37700
N2815       N  0.78592401  0.99776991  0.28713769    -0.88900
H2816       H  0.80764154  0.03181602  0.33406857     0.18800
H2817       H  0.83989549  0.92537928  0.32054127     0.18800
N2818       N  0.86230892  0.62802105  0.36549549    -0.87900
H2819       H  0.80572930  0.02721167  0.28131799     0.36100
H2820       H  0.76100213  0.99729977  0.29541001     0.41200
H2821       H  0.88931688  0.63147824  0.35876428     0.40900
H2822       H  0.84315601  0.59778634  0.36968506     0.35800
C2823       C  0.66617064  0.86288527  0.32832527    -0.26000
C2824       C  0.98789243  0.82486081  0.33976048    -0.14000
C2825       C  0.65644765  0.79646127  0.32350762     0.36600
C2826       C  0.67772806  0.80833608  0.29924337    -0.25400
C2827       C  0.69545433  0.84782522  0.29039563    -0.14700
C2828       C  0.68704832  0.87451066  0.30407793     0.37700
N2829       N  0.70090824  0.91431060  0.29467904    -0.88900
H2830       H  0.00090702  0.88594933  0.34205103     0.18800
H2831       H  0.68307569  0.78732589  0.28848835     0.18800
N2832       N  0.97026288  0.75511064  0.33045218    -0.87900
H2833       H  0.72082917  0.93342935  0.30871239     0.36100
H2834       H  0.71590394  0.91979215  0.27632754     0.41200
H2835       H  0.99174219  0.74667213  0.33062368     0.40900
H2836       H  0.61968094  0.73764594  0.31753665     0.35800
C2837       C  0.85302107  0.86978348  0.30050690    -0.26000
C2838       C  0.81285176  0.84694600  0.29434465    -0.14000
C2839       C  0.78765452  0.81457992  0.31092452     0.36600
C2840       C  0.80171860  0.80738061  0.33438260    -0.25400
C2841       C  0.84100091  0.83206551  0.34210490    -0.14700
C2842       C  0.86755411  0.86264014  0.32423123     0.37700
N2843       N  0.90880272  0.88662810  0.33022486    -0.88900
H2844       H  0.87238769  0.89504975  0.28785455     0.18800
H2845       H  0.78106697  0.78267937  0.34698033     0.18800
N2846       N  0.74688762  0.78986821  0.30470369    -0.87900
H2847       H  0.92367801  0.90845406  0.31552076     0.36100
H2848       H  0.92098737  0.86804041  0.32944148     0.41200
H2849       H  0.73035362  0.79043670  0.32114302     0.40900
H2850       H  0.74112746  0.76065838  0.30269996     0.35800
C2851       C  0.94765028  0.77877765  0.82738343    -0.26000
C2852       C  0.95733793  0.80471202  0.80528761    -0.14000
C2853       C  0.99354496  0.84103966  0.80502561     0.36600
C2854       C  0.01891918  0.85035789  0.82658098    -0.25400
C2855       C  0.67830299  0.82621975  0.84775010    -0.14700
C2856       C  0.97229083  0.78865298  0.84921499     0.37700
N2857       N  0.63122819  0.76227954  0.87004142    -0.88900
H2858       H  0.92000394  0.75106497  0.82826552     0.18800
H2859       H  0.71679160  0.87957424  0.82496478     0.18800
N2860       N  0.00376081  0.86970706  0.78404697    -0.87900
H2861       H  0.95851626  0.77535115  0.88842329     0.36100
H2862       H  0.65371735  0.75595120  0.87374906     0.41200
H2863       H  0.03065335  0.87535849  0.77542321     0.40900
H2864       H  0.00821293  0.89626690  0.79245128     0.35800
C2865       C  0.86134431  0.68665737  0.80972824    -0.26000
C2866       C  0.83887474  0.70262594  0.80005062    -0.14000
C2867       C  0.80452764  0.69561708  0.81419155     0.36600
C2868       C  0.79408090  0.67427305  0.83825628    -0.25400
C2869       C  0.82204310  0.99623518  0.84705005    -0.14700
C2870       C  0.85222547  0.66739515  0.83466937     0.37700
N2871       N  0.87702647  0.65357889  0.84515005    -0.88900
H2872       H  0.88825970  0.69262721  0.79918657     0.18800
H2873       H  0.77212303  0.00537831  0.84778151     0.18800
N2874       N  0.78114165  0.71174306  0.80487938    -0.87900
H2875       H  0.90565509  0.67803181  0.84659091     0.36100
H2876       H  0.87661000  0.96359898  0.82682986     0.41200
H2877       H  0.77919384  0.72895535  0.82023476     0.40900
H2878       H  0.75255432  0.68800026  0.80176717     0.35800
C2879       C  0.81976071  0.81145848  0.80613530    -0.26000
C2880       C  0.85894744  0.82926813  0.79699880    -0.14000
C2881       C  0.88867253  0.86242062  0.81040909     0.36600
C2882       C  0.87922715  0.87574694  0.83379979    -0.25400
C2883       C  0.84089584  0.85495270  0.84460468    -0.14700
C2884       C  0.81045280  0.82329019  0.83035566     0.37700
N2885       N  0.77041795  0.80324398  0.84058488    -0.88900
H2886       H  0.79702621  0.78644588  0.79538133     0.18800
H2887       H  0.90222677  0.90109668  0.84422732     0.18800
N2888       N  0.92893861  0.88101803  0.80118034    -0.87900
H2889       H  0.76962600  0.78840254  0.85816591     0.36100
H2890       H  0.75154983  0.78134217  0.82730879     0.41200
H2891       H  0.93881003  0.91108204  0.79747470     0.40900
H2892       H  0.94567486  0.87944178  0.81666499     0.35800
C2893       C  0.97282527  0.84851608  0.72765367    -0.26000
C2894       C  0.96579488  0.81396138  0.74108068    -0.14000
C2895       C  0.98241260  0.79171728  0.73088682     0.36600
C2896       C  0.00272044  0.80277987  0.70616168    -0.25400
C2897       C  0.67269045  0.83449603  0.68862158    -0.14700
C2898       C  0.99284779  0.85954936  0.70307343     0.37700
N2899       N  0.65447931  0.88660398  0.68343712    -0.88900
H2900       H  0.95979240  0.86542336  0.73538685     0.18800
H2901       H  0.68528227  0.78731673  0.69701119     0.18800
N2902       N  0.97788523  0.75707417  0.74449617    -0.87900
H2903       H  0.01279389  0.91867655  0.70218604     0.36100
H2904       H  0.62487754  0.87852216  0.68098570     0.41200
H2905       H  0.96276170  0.75251539  0.76268423     0.40900
H2906       H  0.00623591  0.76275512  0.74913506     0.35800
C2907       C  0.79675795  0.66146287  0.70549118    -0.26000
C2908       C  0.83024175  0.00235169  0.68518330    -0.14000
C2909       C  0.86554932  0.68412699  0.69436708     0.36600
C2910       C  0.87612296  0.70335220  0.71889758    -0.25400
C2911       C  0.84809487  0.70394792  0.73634660    -0.14700
C2912       C  0.80769995  0.68141512  0.73015347     0.37700
N2913       N  0.77804460  0.67880812  0.74871358    -0.88900
H2914       H  0.77049647  0.98417709  0.69863966     0.18800
H2915       H  0.90717504  0.72060433  0.72346710     0.18800
N2916       N  0.90076272  0.02608086  0.67413928    -0.87900
H2917       H  0.74965286  0.66056302  0.74115951     0.36100
H2918       H  0.78155152  0.70698940  0.75090874     0.41200
H2919       H  0.92855499  0.04195941  0.68259176     0.40900
H2920       H  0.91627679  0.71667087  0.67291477     0.35800
C2921       C  0.86209769  0.86966705  0.70305615    -0.26000
C2922       C  0.83307934  0.84021556  0.68664210    -0.14000
C2923       C  0.81446763  0.79984747  0.69498767     0.36600
C2924       C  0.82610546  0.79012236  0.71843313    -0.25400
C2925       C  0.85569077  0.81918265  0.73422452    -0.14700
C2926       C  0.87360247  0.85936464  0.72671442     0.37700
N2927       N  0.90422647  0.88951746  0.74246353    -0.88900
H2928       H  0.87613986  0.90088156  0.69752228     0.18800
H2929       H  0.81324505  0.75905129  0.72358532     0.18800
N2930       N  0.78470593  0.76768400  0.67987252    -0.87900
H2931       H  0.92942694  0.90530691  0.73022686     0.36100
H2932       H  0.89504334  0.90934045  0.74860659     0.41200
H2933       H  0.79560278  0.76881098  0.66050825     0.40900
H2934       H  0.75937921  0.77024760  0.67942868     0.35800
loop_ 
_geom_bond_atom_site_label_1 
_geom_bond_atom_site_label_2 
_geom_bond_distance 
_geom_bond_site_symmetry_2 
_ccdc_geom_bond_type 
Zn1           O5   1.952       .  S
Zn1           O6   1.997       .  S
Zn1          O10   1.990       .  S
Zn1          O17   2.012       .  S
Zn2           O5   1.951       .  S
Zn2           O7   2.018       .  S
Zn2           O9   1.988       .  S
Zn2          O13   2.021       .  S
Zn3           O5   1.943       .  S
Zn3           O8   1.997       .  S
Zn3          O11   1.988       .  S
Zn3          O14   2.024       .  S
Zn4           O5   1.949       .  S
Zn4          O12   2.098       .  S
Zn4          O15   2.096       .  S
Zn4          O16   2.092       .  S
O6           C18   1.269       .  A
O7           C19   1.271       .  A
O8           C20   1.270       .  A
O9           C18   1.270       .  A
O10          C20   1.269       .  A
O11          C19   1.270       .  A
O12          C21   1.285       .  A
O13          C22   1.275       .  A
O14          C21   1.274       .  A
O15          C22   1.285       .  A
O16          C23   1.284       .  A
O17          C23   1.274       .  A
C18         C289   1.483       .  S
C19         C300   1.488       .  S
C20         C314   1.485       .  S
C21         C157   1.482       .  S
C22         C158   1.480       .  S
C23         C153   1.476       .  S
C24          H25   1.112       .  S
C24          C30   1.526       .  S
C24          C29   1.532       .  S
C24          C28   1.535       .  S
C26          H27   1.113       .  S
C26          C32   1.529       .  S
C26          C31   1.534       .  S
C26          C33   1.524       .  S
C28          C31   1.379       .  D
C28         C244   1.487       .  S
C29          C32   1.369       .  D
C29         C258   1.470       .  S
C30          C33   1.359       .  D
C30         C272   1.458       .  S
C31         C286   1.472       .  S
C32         C303   1.471       .  S
C33         C317   1.470       .  S
Zn34         O38   1.910       .  S
Zn34         O39   2.047       .  S
Zn34         O43   2.050       .  S
Zn34         O50   2.061       .  S
Zn35         O38   1.855       .  S
Zn35         O40   1.934       .  S
Zn35         O42   1.953       .  S
Zn35         O46   1.943       .  S
Zn36         O38   1.915       .  S
Zn36         O41   2.028       .  S
Zn36         O44   2.058       .  S
Zn36         O47   2.031       .  S
Zn37         O38   1.921       .  S
Zn37         O45   2.049       .  S
Zn37         O48   2.060       .  S
Zn37         O49   2.046       .  S
O39          C51   1.277       .  A
O40          C52   1.260       .  A
O41          C53   1.278       .  A
O42          C51   1.263       .  A
O43          C53   1.281       .  A
O44          C52   1.276       .  A
O45          C54   1.282       .  A
O46          C55   1.258       .  A
O47          C54   1.279       .  A
O48          C55   1.275       .  A
O49          C56   1.280       .  A
O50          C56   1.282       .  A
C51         C275   1.455       .  S
C52         C247   1.463       .  S
C53         C133   1.466       .  S
C54         C135   1.466       .  S
C55         C261   1.457       .  S
C56         C134   1.475       .  S
Zn57         O61   1.963       .  S
Zn57         O62   2.015       .  S
Zn57         O66   1.976       .  S
Zn57         O73   1.999       .  S
Zn58         O61   1.948       .  S
Zn58         O63   2.097       .  S
Zn58         O65   2.096       .  S
Zn58         O69   2.092       .  S
Zn59         O61   1.973       .  S
Zn59         O64   1.986       .  S
Zn59         O67   2.031       .  S
Zn59         O70   2.001       .  S
Zn60         O61   1.948       .  S
Zn60         O68   1.963       .  S
Zn60         O71   2.004       .  S
Zn60         O72   1.981       .  S
O62          C74   1.273       .  A
O63          C75   1.286       .  A
O64          C76   1.271       .  A
O65          C74   1.286       .  A
O66          C76   1.267       .  A
O67          C75   1.275       .  A
O68          C77   1.267       .  A
O69          C78   1.286       .  A
O70          C77   1.269       .  A
O71          C78   1.272       .  A
O72          C79   1.266       .  A
O73          C79   1.269       .  A
C74         C154   1.489       .  S
C75         C156   1.492       .  S
C76         C216   1.478       .  S
C77         C233   1.478       .  S
C78         C155   1.483       .  S
C79         C202   1.472       .  S
C80          H81   1.113       .  S
C80          C86   1.532       .  S
C80          C85   1.534       .  S
C80          C84   1.533       .  S
C82          H83   1.113       .  S
C82          C88   1.531       .  S
C82          C87   1.520       .  S
C82          C89   1.532       .  S
C84          C87   1.363       .  D
C84         C219   1.466       .  S
C85          C88   1.372       .  D
C85         C205   1.483       .  S
C86          C89   1.367       .  D
C86         C230   1.468       .  S
C87         C160   1.470       .  S
C88         C177   1.465       .  S
C89         C191   1.471       .  S
Zn90         O94   1.950       .  S
Zn90         O95   1.988       .  S
Zn90         O99   1.958       .  S
Zn90        O106   1.999       .  S
Zn91         O94   1.950       .  S
Zn91         O96   1.995       .  S
Zn91         O98   1.994       .  S
Zn91        O102   2.005       .  S
Zn92         O94   1.964       .  S
Zn92         O97   1.985       .  S
Zn92        O100   2.000       .  S
Zn92        O103   2.023       .  S
Zn93         O94   1.956       .  S
Zn93        O101   2.092       .  S
Zn93        O104   2.078       .  S
Zn93        O105   2.091       .  S
O95         C107   1.266       .  A
O96         C108   1.269       .  A
O97         C109   1.269       .  A
O98         C107   1.270       .  A
O99         C109   1.267       .  A
O100        C108   1.270       .  A
O101        C110   1.284       .  A
O102        C111   1.273       .  A
O103        C110   1.274       .  A
O104        C111   1.283       .  A
O105        C112   1.283       .  A
O106        C112   1.270       .  A
C107        C163   1.483       .  S
C108        C174   1.487       .  S
C109        C188   1.468       .  S
C110        C132   1.480       .  S
C111        C131   1.471       .  S
C112        C130   1.474       .  S
Zn113       O443   1.980       .  S
Zn113       O129   2.002   1_554  S
Zn113      O2074   2.039   1_455  S
Zn113       O448   2.057       .  S
Zn114      O1421   1.977       .  S
Zn114       O121   2.036       .  S
Zn114       O125   2.013   1_554  S
Zn114       O445   2.037       .  S
Zn115       O117   1.978   1_545  S
Zn115       O120   2.055       .  S
Zn115       O126   2.009   1_554  S
Zn115      O2079   2.049   1_455  S
Zn116       O117   1.984   1_546  S
Zn116       O124   2.054       .  S
Zn116      O2735   2.076   1_445  S
Zn116       O780   2.065   1_545  S
O117       Zn765   1.973       .  S
O117      Zn2722   1.977   1_455  S
O118      Zn1091   2.048       .  S
O118        C130   1.276       .  A
O119       Zn766   2.040   1_545  S
O119        C131   1.276       .  A
O120        C132   1.277       .  A
O121        C130   1.275       .  A
O122       Zn765   2.045   1_545  S
O122        C132   1.275       .  A
O123      Zn1093   2.045       .  S
O123        C131   1.277       .  A
O124        C133   1.278       .  A
O125        C134   1.270       .  A
O126        C133   1.271       .  A
O127      Zn1420   2.071       .  S
O127        C134   1.279       .  A
O128       Zn442   2.062       .  S
O128        C135   1.279       .  A
O129        C135   1.270       .  A
Zn136       O792   1.985       .  S
Zn136       O141   2.048       .  S
Zn136       O145   2.017       .  S
Zn136       O804   2.043   1_545  S
Zn137      O1770   1.989       .  S
Zn137       O142   2.021       .  S
Zn137      O1122   2.041       .  S
Zn137       O800   2.039   1_545  S
Zn138       O140   1.984       .  S
Zn138       O469   2.076       .  S
Zn138      O2428   2.093   1_455  S
Zn138      O2105   2.090   1_455  S
Zn139      O1118   1.988       .  S
Zn139       O147   2.031       .  S
Zn139       O150   2.058       .  S
Zn139      O1129   2.055       .  S
O140       Zn462   1.990       .  S
O140      Zn2419   1.990   1_455  S
O140      Zn2095   1.989   1_455  S
O141        C153   1.276       .  A
O142        C154   1.271       .  A
O143       Zn790   2.076       .  S
O143        C155   1.283       .  A
O144      Zn2093   2.042   1_455  S
O144        C153   1.275       .  A
O145        C155   1.272       .  A
O146      Zn1768   2.090       .  S
O146        C154   1.283       .  A
O147        C156   1.273       .  A
O148       Zn463   2.053       .  S
O148        C157   1.277       .  A
O149      Zn1116   2.086       .  S
O149        C156   1.283       .  A
O150        C157   1.277       .  A
O151      Zn2095   2.060   1_455  S
O151        C158   1.278       .  A
O152       Zn462   2.045       .  S
O152        C158   1.275       .  A
C159        C160   1.396       .  A
C159        C164   1.403       .  A
C159        H166   1.083       .  S
C160        C161   1.406       .  A
C161       C2118   1.397       .  A
C161        N168   1.429       .  S
C162        C163   1.403       .  A
C162       C1139   1.396       .  A
C162        H167   1.084       .  S
C163       C1142   1.419       .  A
C164       C2119   1.418   1_455  A
C164        N165   1.433   1_455  S
N165        H169   1.046   1_655  S
N165        H170   1.045       .  S
N168        H171   1.045       .  S
N168       H2128   1.046       .  S
H172       N1146   1.046       .  S
C173        C174   1.411       .  A
C173        C830   1.402   1_545  A
C173        H180   1.083       .  S
C174        C827   1.413   1_545  A
C175        C176   1.396       .  A
C175        C500   1.414       .  A
C175        N182   1.433       .  S
C176        C177   1.399       .  A
C176        H181   1.084       .  S
C177        C178   1.408       .  A
C178        C499   1.401       .  A
C178        N179   1.438       .  S
N179        H183   1.043       .  S
N179        H184   1.046       .  S
N182        H186   1.046       .  S
N182        H511   1.046       .  S
H185        N834   1.046   1_545  S
C187        C188   1.410       .  A
C187        C192   1.406       .  A
C187        H194   1.084       .  S
C188        C189   1.405       .  A
C189        C190   1.388       .  A
C189        N196   1.434       .  S
C190        C191   1.400       .  A
C190        H195   1.077       .  S
C191        C192   1.407       .  A
C192        N193   1.438       .  S
N193        H197   1.046       .  S
N193        H198   1.043       .  S
N196        H199   1.046       .  S
N196        H200   1.046       .  S
C201        C206   1.406       .  A
C201        C528   1.410       .  A
C201        H208   1.084       .  S
C202        C853   1.410       .  A
C202        C855   1.404   1_545  A
C203        C204   1.396       .  A
C203        C528   1.404       .  A
C203        N536   1.433       .  S
C204        C205   1.405       .  A
C204        H209   1.077       .  S
C205        C206   1.405       .  A
C206        N207   1.431       .  S
N207        H211   1.045       .  S
N207        H212   1.045       .  S
N210        C855   1.439       .  S
N210        H213   1.045       .  S
N210        H214   1.047       .  S
C215        C220   1.393       .  A
C215       C2172   1.405   1_455  A
C215       H2178   1.084       .  S
C216       C1193   1.402       .  A
C216       C1195   1.418       .  A
C217        C218   1.406   1_655  A
C217       C2172   1.422       .  A
C217       N2180   1.438       .  S
C218        C219   1.395       .  A
C218        H223   1.084       .  S
C219        C220   1.409       .  A
C220        N221   1.436       .  S
N221        H225   1.044       .  S
N221        H226   1.045       .  S
H222       C1193   1.084       .  S
N224       C1195   1.433       .  S
N224        H227   1.045       .  S
N224       H1206   1.046       .  S
H228       N2180   1.046       .  S
C229        C230   1.399       .  A
C229        C234   1.408       .  A
C229        H236   1.084       .  S
C230        C231   1.401       .  A
C231        C232   1.391       .  A
C231        N238   1.429       .  S
C232        C233   1.402       .  A
C232        H237   1.084       .  S
C233        C234   1.419       .  A
C234        N235   1.438       .  S
N235        H239   1.045       .  S
N235        H240   1.046       .  S
N238        H241   1.045       .  S
N238        H242   1.046       .  S
C243        C244   1.411       .  A
C243        C248   1.397       .  A
C243        H250   1.078       .  S
C244        C245   1.406       .  A
C245        C246   1.399       .  A
C245        N252   1.430       .  S
C246       C1225   1.406       .  A
C246       H1229   1.085       .  S
C247       C2202   1.406       .  A
C247       C2204   1.406   1_455  A
C248       C1225   1.407       .  A
C248       N1227   1.438       .  S
N249       C2204   1.438       .  S
N249        H254   1.041       .  S
N249       H2209   1.048       .  S
H251       C2202   1.085       .  S
N252        H255   1.046       .  S
N252        H256   1.046       .  S
H253       N1227   1.045       .  S
C257        C258   1.400       .  A
C257        C262   1.403   1_545  A
C257        H264   1.084       .  S
C258        C259   1.407       .  A
C259        C260   1.399       .  A
C259        N266   1.429       .  S
C260        C913   1.398   1_545  A
C260        H917   1.084       .  S
C261        C586   1.398       .  A
C261        C588   1.407       .  A
C262        C913   1.408       .  A
C262        N263   1.432       .  S
N263        H267   1.045   1_565  S
N263        H920   1.046       .  S
H265        C586   1.084       .  S
N266        H269   1.042       .  S
N266        H270   1.047       .  S
H268        N589   1.046       .  S
C271        C272   1.393       .  A
C271        C276   1.396       .  A
C271        H278   1.083       .  S
C272        C273   1.407       .  A
C273        C274   1.399       .  A
C273        N280   1.432       .  S
C274        C275   1.397       .  A
C274        H279   1.084       .  S
C275        C276   1.408       .  A
C276        N277   1.431       .  S
N277        H281   1.043       .  S
N277        H282   1.048       .  S
N280        H283   1.044       .  S
N280        H284   1.047       .  S
C285        C286   1.396       .  A
C285        C290   1.393       .  A
C285        H292   1.080       .  S
C286        C287   1.410       .  A
C287        C288   1.406       .  A
C287        N294   1.437       .  S
C288       C1267   1.411       .  A
C288       H1271   1.083       .  S
C289       C2244   1.411       .  A
C289       C2246   1.413   1_455  A
C290       C1267   1.413       .  A
C290       N1269   1.433       .  S
N291       C2246   1.433   1_455  S
N291        H296   1.046   1_455  S
N291       H2251   1.045       .  S
H293       C2244   1.083       .  S
N294        H297   1.047       .  S
N294        H298   1.043       .  S
H295       N1269   1.046       .  S
C299        C304   1.403   1_565  A
C299        C952   1.411       .  A
C299        H958   1.084       .  S
C300        C625   1.412       .  A
C300        C627   1.415       .  A
C301        C302   1.396       .  A
C301        C952   1.413   1_545  A
C301        N960   1.439       .  S
C302        C303   1.400       .  A
C302        H307   1.077       .  S
C303        C304   1.401       .  A
C304        N305   1.431       .  S
N305        H309   1.045   1_545  S
N305        H310   1.046       .  S
H306        C625   1.083       .  S
N308        C627   1.433       .  S
N308        H311   1.045       .  S
N308        H638   1.046       .  S
H312        N960   1.050       .  S
C313        C314   1.410       .  A
C313        C318   1.402       .  A
C313        H320   1.084       .  S
C314        C315   1.422       .  A
C315        C316   1.395       .  A
C315        N322   1.433       .  S
C316        C317   1.398       .  A
C316        H321   1.083       .  S
C317        C318   1.400       .  A
C318        N319   1.431       .  S
N319        H323   1.045       .  S
N319        H324   1.045       .  S
N322        H325   1.043       .  S
N322        H326   1.047       .  S
Zn327       O331   1.952       .  S
Zn327       O332   2.000       .  S
Zn327       O336   1.976       .  S
Zn327       O343   2.018       .  S
Zn328       O331   1.957       .  S
Zn328       O333   2.008       .  S
Zn328       O335   1.987       .  S
Zn328       O339   2.020       .  S
Zn329       O331   1.957       .  S
Zn329       O334   1.984       .  S
Zn329       O337   1.982       .  S
Zn329       O340   1.993       .  S
Zn330       O331   1.959       .  S
Zn330       O338   2.090       .  S
Zn330       O341   2.081       .  S
Zn330       O342   2.082       .  S
O332        C344   1.270       .  A
O333        C345   1.271       .  A
O334        C346   1.267       .  A
O335        C344   1.269       .  A
O336        C346   1.267       .  A
O337        C345   1.268       .  A
O338        C347   1.284       .  A
O339        C348   1.274       .  A
O340        C347   1.270       .  A
O341        C348   1.283       .  A
O342        C349   1.282       .  A
O343        C349   1.273       .  A
C344        C615   1.487       .  S
C345        C626   1.487       .  S
C346        C640   1.476       .  S
C347        C483   1.471       .  S
C348        C484   1.476       .  S
C349        C479   1.477       .  S
C350        H351   1.113       .  S
C350        C356   1.530       .  S
C350        C355   1.534       .  S
C350        C354   1.536       .  S
C352        H353   1.114       .  S
C352        C358   1.524       .  S
C352        C357   1.527       .  S
C352        C359   1.526       .  S
C354        C357   1.376       .  D
C354        C570   1.482       .  S
C355        C358   1.364       .  D
C355        C584   1.463       .  S
C356        C359   1.368       .  D
C356        C598   1.467       .  S
C357        C612   1.472       .  S
C358        C629   1.472       .  S
C359        C643   1.471       .  S
Zn360       O364   1.915       .  S
Zn360       O365   2.047       .  S
Zn360       O369   2.061       .  S
Zn360       O376   2.066       .  S
Zn361       O364   1.865       .  S
Zn361       O366   1.928       .  S
Zn361       O368   1.956       .  S
Zn361       O372   1.953       .  S
Zn362       O364   1.920       .  S
Zn362       O367   2.048       .  S
Zn362       O370   2.059       .  S
Zn362       O373   2.030       .  S
Zn363       O364   1.930       .  S
Zn363       O371   2.049       .  S
Zn363       O374   2.053       .  S
Zn363       O375   2.034       .  S
O365        C377   1.277       .  A
O366        C378   1.260       .  A
O367        C379   1.281       .  A
O368        C377   1.264       .  A
O369        C379   1.282       .  A
O370        C378   1.276       .  A
O371        C380   1.281       .  A
O372        C381   1.258       .  A
O373        C380   1.279       .  A
O374        C381   1.272       .  A
O375        C382   1.279       .  A
O376        C382   1.282       .  A
C377        C601   1.457       .  S
C378        C573   1.464       .  S
C379        C459   1.475       .  S
C380        C461   1.466       .  S
C381        C587   1.458       .  S
C382        C460   1.473       .  S
Zn383       O387   1.962       .  S
Zn383       O388   2.017       .  S
Zn383       O392   1.973       .  S
Zn383       O399   2.002       .  S
Zn384       O387   1.954       .  S
Zn384       O389   2.091       .  S
Zn384       O391   2.099       .  S
Zn384       O395   2.093       .  S
Zn385       O387   1.971       .  S
Zn385       O390   1.995       .  S
Zn385       O393   2.030       .  S
Zn385       O396   1.999       .  S
Zn386       O387   1.956       .  S
Zn386       O394   1.976       .  S
Zn386       O397   2.014       .  S
Zn386       O398   1.998       .  S
O388        C400   1.273       .  A
O389        C401   1.285       .  A
O390        C402   1.271       .  A
O391        C400   1.286       .  A
O392        C402   1.267       .  A
O393        C401   1.275       .  A
O394        C403   1.268       .  A
O395        C404   1.286       .  A
O396        C403   1.269       .  A
O397        C404   1.274       .  A
O398        C405   1.269       .  A
O399        C405   1.270       .  A
C400        C480   1.489       .  S
C401        C482   1.491       .  S
C402        C542   1.483       .  S
C403        C559   1.480       .  S
C404        C481   1.485       .  S
C405        C528   1.477       .  S
C406        H407   1.113       .  S
C406        C412   1.533       .  S
C406        C411   1.535       .  S
C406        C410   1.533       .  S
C408        H409   1.113       .  S
C408        C414   1.530       .  S
C408        C413   1.521       .  S
C408        C415   1.533       .  S
C410        C413   1.364       .  D
C410        C545   1.464       .  S
C411        C414   1.371       .  D
C411        C531   1.483       .  S
C412        C415   1.370       .  D
C412        C556   1.472       .  S
C413        C486   1.473       .  S
C414        C503   1.464       .  S
C415        C517   1.476       .  S
Zn416       O420   1.954       .  S
Zn416       O421   1.989       .  S
Zn416       O425   1.967       .  S
Zn416       O432   1.999       .  S
Zn417       O420   1.954       .  S
Zn417       O422   1.989       .  S
Zn417       O424   1.985       .  S
Zn417       O428   2.007       .  S
Zn418       O420   1.966       .  S
Zn418       O423   2.010       .  S
Zn418       O426   1.988       .  S
Zn418       O429   2.032       .  S
Zn419       O420   1.958       .  S
Zn419       O427   2.096       .  S
Zn419       O430   2.089       .  S
Zn419       O431   2.093       .  S
O421        C433   1.267       .  A
O422        C434   1.269       .  A
O423        C435   1.271       .  A
O424        C433   1.269       .  A
O425        C435   1.267       .  A
O426        C434   1.269       .  A
O427        C436   1.285       .  A
O428        C437   1.272       .  A
O429        C436   1.276       .  A
O430        C437   1.284       .  A
O431        C438   1.284       .  A
O432        C438   1.271       .  A
C433        C489   1.481       .  S
C434        C500   1.484       .  S
C435        C514   1.474       .  S
C436        C458   1.484       .  S
C437        C457   1.474       .  S
C438        C456   1.475       .  S
Zn439       O769   1.977   1_455  S
Zn439      O2400   2.039   1_455  S
Zn439       O774   2.043       .  S
Zn439       O455   1.991   1_554  S
Zn440      O1747   1.981       .  S
Zn440       O771   2.045       .  S
Zn440       O447   2.045       .  S
Zn440       O451   2.007   1_554  S
Zn441       O443   1.980       .  S
Zn441       O446   2.059       .  S
Zn441      O2405   2.039   1_455  S
Zn441       O452   2.017   1_554  S
Zn442       O443   1.988   1_556  S
Zn442       O450   2.070       .  S
Zn442      O2083   2.093   1_455  S
O443      Zn2070   1.983   1_455  S
O444      Zn1417   2.042       .  S
O444        C456   1.276       .  A
O445        C457   1.275       .  A
O446        C458   1.276       .  A
O447        C456   1.276       .  A
O448        C458   1.276       .  A
O449      Zn1419   2.050       .  S
O449        C457   1.277       .  A
O450        C459   1.280       .  A
O451        C460   1.270       .  A
O452        C459   1.272       .  A
O453      Zn1746   2.073       .  S
O453        C460   1.280       .  A
O454       Zn768   2.068       .  S
O454        C461   1.280       .  A
O455        C461   1.268       .  A
Zn462       O467   2.047       .  S
Zn462       O471   2.018       .  S
Zn463      O1118   1.989       .  S
Zn463       O468   2.026       .  S
Zn463      O1448   2.049       .  S
Zn464       O466   1.983       .  S
Zn464       O795   2.081       .  S
Zn464      O2754   2.091   1_455  S
Zn464      O2431   2.090   1_455  S
Zn465      O1444   1.989       .  S
Zn465       O473   2.031       .  S
Zn465       O476   2.046       .  S
Zn465      O1455   2.063       .  S
O466       Zn788   1.990       .  S
O466      Zn2745   1.988   1_455  S
O466      Zn2421   1.989   1_455  S
O467        C479   1.276       .  A
O468        C480   1.273       .  A
O469        C481   1.282       .  A
O470      Zn2419   2.048   1_455  S
O470        C479   1.276       .  A
O471        C481   1.272       .  A
O472      Zn1116   2.085       .  S
O472        C480   1.283       .  A
O473        C482   1.273       .  A
O474       Zn789   2.035       .  S
O474        C483   1.275       .  A
O475      Zn1442   2.086       .  S
O475        C482   1.283       .  A
O476        C483   1.277       .  A
O477      Zn2421   2.058   1_455  S
O477        C484   1.278       .  A
O478       Zn788   2.036       .  S
O478        C484   1.275       .  A
C485        C486   1.398       .  A
C485        C490   1.403   1_455  A
C485        H492   1.082       .  S
C486        C487   1.407       .  A
C487       C2444   1.395       .  A
C487        N494   1.429       .  S
C488       C1465   1.395       .  A
C488        C489   1.403       .  A
C488        H493   1.084       .  S
C489       C1468   1.418       .  A
C490       C2445   1.417       .  A
C490        N491   1.433       .  S
N491        H495   1.046       .  S
N491        H496   1.045       .  S
N494        H497   1.045       .  S
N494       H2454   1.046       .  S
H498       N1472   1.045       .  S
C499        C500   1.411       .  A
C499        H506   1.083       .  S
C501        C826   1.413       .  A
C501        C502   1.397       .  A
C501        N508   1.433       .  S
C502        C503   1.401       .  A
C502        H507   1.084       .  S
C503        C504   1.408       .  A
C504        C825   1.400       .  A
C504        N505   1.438       .  S
N505        H509   1.045       .  S
N505        H510   1.045       .  S
N508        H837   1.045       .  S
N508        H512   1.046       .  S
C513        C514   1.410       .  A
C513        C518   1.410       .  A
C513        H520   1.084       .  S
C514        C515   1.406       .  A
C515        C516   1.391       .  A
C515        N522   1.433       .  S
C516        C517   1.401       .  A
C516        H521   1.080       .  S
C517        C518   1.409       .  A
C518        N519   1.437       .  S
N519        H523   1.043       .  S
N519        H524   1.047       .  S
N522        H525   1.045       .  S
N522        H526   1.046       .  S
C527        C854   1.411       .  A
C527        C532   1.407       .  A
C527        H534   1.084       .  S
C529        C854   1.407       .  A
C529        C530   1.398       .  A
C529        N862   1.438       .  S
C530        C531   1.403       .  A
C530        H535   1.077       .  S
C531        C532   1.405       .  A
C532        N533   1.432       .  S
N533        H537   1.045       .  S
N533        H538   1.045       .  S
N536        H539   1.046       .  S
N536        H540   1.046       .  S
C541       C2498   1.403   1_455  A
C541        C546   1.391       .  A
C541       H2504   1.084   1_455  S
C542       C1519   1.403       .  A
C542       C1521   1.422       .  A
C543       C2498   1.421       .  A
C543        C544   1.406   1_655  A
C543       N2506   1.438       .  S
C544        C545   1.395       .  A
C544        H549   1.084       .  S
C545        C546   1.408       .  A
C546        N547   1.434       .  S
N547        H551   1.042       .  S
N547        H552   1.045       .  S
H548       C1519   1.084       .  S
N550       C1521   1.438       .  S
N550        H553   1.046       .  S
N550       H1532   1.045       .  S
H554       N2506   1.046       .  S
C555        C556   1.398       .  A
C555        C560   1.407       .  A
C555        H562   1.084       .  S
C556        C557   1.403       .  A
C557        C558   1.394       .  A
C557        N564   1.429       .  S
C558        C559   1.402       .  A
C558        H563   1.084       .  S
C559        C560   1.420       .  A
C560        N561   1.438       .  S
N561        H565   1.045       .  S
N561        H566   1.046       .  S
N564        H567   1.045       .  S
N564        H568   1.046       .  S
C569        C570   1.408       .  A
C569        C574   1.393       .  A
C569        H576   1.075       .  S
C570        C571   1.406       .  A
C571        C572   1.402       .  A
C571        N578   1.431       .  S
C572       C1551   1.408       .  A
C572       H1555   1.085       .  S
C573       C2528   1.406       .  A
C573       C2530   1.401   1_455  A
C574       C1551   1.400       .  A
C574       N1553   1.432       .  S
N575       C2530   1.432       .  S
N575       H2535   1.045       .  S
N575        H580   1.046       .  S
H577       C2528   1.085       .  S
N578        H581   1.046       .  S
N578        H582   1.045       .  S
H579       N1553   1.045       .  S
C583        C584   1.397       .  A
C583        C588   1.399       .  A
C583        H590   1.085       .  S
C584        C585   1.405       .  A
C585        C586   1.398       .  A
C585        N592   1.429       .  S
C587        C912   1.399       .  A
C587        C914   1.407       .  A
C588        N589   1.432       .  S
N589        H593   1.045       .  S
H591        C912   1.084       .  S
N592        H595   1.042       .  S
N592        H596   1.047       .  S
H594        N915   1.045       .  S
C597        C598   1.397       .  A
C597        C602   1.401       .  A
C597        H604   1.082       .  S
C598        C599   1.409       .  A
C599        C600   1.400       .  A
C599        N606   1.430       .  S
C600        C601   1.396       .  A
C600        H605   1.084       .  S
C601        C602   1.407       .  A
C602        N603   1.433       .  S
N603        H607   1.044       .  S
N603        H608   1.046       .  S
N606        H609   1.045       .  S
N606        H610   1.046       .  S
C611        C612   1.399       .  A
C611        C616   1.393       .  A
C611        H618   1.084       .  S
C612        C613   1.412       .  A
C613        C614   1.408       .  A
C613        N620   1.438       .  S
C614       C1593   1.412       .  A
C614       H1597   1.083       .  S
C615       C2570   1.411       .  A
C615       C2572   1.415   1_455  A
C616       C1593   1.413       .  A
C616       N1595   1.433       .  S
N617       C2572   1.433   1_455  S
N617       H2577   1.046       .  S
N617        H622   1.046   1_455  S
H619       C2570   1.083       .  S
N620        H623   1.044       .  S
N620        H624   1.045       .  S
H621       N1595   1.046       .  S
C625        C630   1.408       .  A
C626        C951   1.412       .  A
C626        C953   1.414       .  A
C627        C628   1.394       .  A
C628        C629   1.396       .  A
C628        H633   1.081       .  S
C629        C630   1.404       .  A
C630        N631   1.432       .  S
N631        H635   1.047       .  S
N631        H636   1.044       .  S
H632        C951   1.083       .  S
N634        C953   1.433       .  S
N634        H637   1.046       .  S
N634        H964   1.046       .  S
C639        C640   1.413       .  A
C639        C644   1.405       .  A
C639        H646   1.084       .  S
C640        C641   1.414       .  A
C641        C642   1.386       .  A
C641        N648   1.434       .  S
C642        C643   1.400       .  A
C642        H647   1.080       .  S
C643        C644   1.401       .  A
C644        N645   1.431       .  S
N645        H649   1.046       .  S
N645        H650   1.045       .  S
N648        H651   1.045       .  S
N648        H652   1.045       .  S
Zn653       O657   1.959       .  S
Zn653       O658   1.999       .  S
Zn653       O662   1.985       .  S
Zn653       O669   2.018       .  S
Zn654       O657   1.956       .  S
Zn654       O659   1.996       .  S
Zn654       O661   1.989       .  S
Zn654       O665   2.023       .  S
Zn655       O657   1.958       .  S
Zn655       O660   1.987       .  S
Zn655       O663   1.976       .  S
Zn655       O666   2.002       .  S
Zn656       O657   1.959       .  S
Zn656       O664   2.089       .  S
Zn656       O667   2.081       .  S
Zn656       O668   2.078       .  S
O658        C670   1.269       .  A
O659        C671   1.269       .  A
O660        C672   1.267       .  A
O661        C670   1.269       .  A
O662        C672   1.268       .  A
O663        C671   1.268       .  A
O664        C673   1.283       .  A
O665        C674   1.274       .  A
O666        C673   1.271       .  A
O667        C674   1.283       .  A
O668        C675   1.282       .  A
O669        C675   1.274       .  A
C670        C941   1.486       .  S
C671        C952   1.479       .  S
C672        C966   1.479       .  S
C673        C809   1.474       .  S
C674        C810   1.478       .  S
C675        C805   1.475       .  S
C676        H677   1.112       .  S
C676        C682   1.528       .  S
C676        C681   1.532       .  S
C676        C680   1.533       .  S
C678        H679   1.114       .  S
C678        C684   1.523       .  S
C678        C683   1.529       .  S
C678        C685   1.526       .  S
C680        C683   1.375       .  D
C680        C896   1.487       .  S
C681        C684   1.365       .  D
C681        C910   1.461       .  S
C682        C685   1.368       .  D
C682        C924   1.465       .  S
C683        C938   1.462       .  S
C684        C955   1.473       .  S
C685        C969   1.473       .  S
Zn686       O690   1.915       .  S
Zn686       O691   2.066       .  S
Zn686       O695   2.067       .  S
Zn686       O702   2.079       .  S
Zn687       O690   1.866       .  S
Zn687       O692   1.928       .  S
Zn687       O694   1.946       .  S
Zn687       O698   1.949       .  S
Zn688       O690   1.922       .  S
Zn688       O693   2.038       .  S
Zn688       O696   2.046       .  S
Zn688       O699   2.036       .  S
Zn689       O690   1.922       .  S
Zn689       O697   2.061       .  S
Zn689       O700   2.070       .  S
Zn689       O701   2.054       .  S
O691        C703   1.278       .  A
O692        C704   1.259       .  A
O693        C705   1.279       .  A
O694        C703   1.262       .  A
O695        C705   1.283       .  A
O696        C704   1.275       .  A
O697        C706   1.283       .  A
O698        C707   1.260       .  A
O699        C706   1.279       .  A
O700        C707   1.276       .  A
O701        C708   1.281       .  A
O702        C708   1.284       .  A
C703        C927   1.461       .  S
C704        C899   1.457       .  S
C705        C785   1.475       .  S
C706        C787   1.471       .  S
C707        C913   1.463       .  S
C708        C786   1.483       .  S
Zn709       O713   1.962       .  S
Zn709       O714   2.022       .  S
Zn709       O718   1.981       .  S
Zn709       O725   2.000       .  S
Zn710       O713   1.952       .  S
Zn710       O715   2.091       .  S
Zn710       O717   2.095       .  S
Zn710       O721   2.093       .  S
Zn711       O713   1.972       .  S
Zn711       O716   1.984       .  S
Zn711       O719   2.020       .  S
Zn711       O722   1.998       .  S
Zn712       O713   1.952       .  S
Zn712       O720   1.968       .  S
Zn712       O723   2.013       .  S
Zn712       O724   1.996       .  S
O714        C726   1.274       .  A
O715        C727   1.285       .  A
O716        C728   1.270       .  A
O717        C726   1.286       .  A
O718        C728   1.268       .  A
O719        C727   1.274       .  A
O720        C729   1.268       .  A
O721        C730   1.286       .  A
O722        C729   1.268       .  A
O723        C730   1.273       .  A
O724        C731   1.268       .  A
O725        C731   1.270       .  A
C726        C806   1.489       .  S
C727        C808   1.487       .  S
C728        C868   1.480       .  S
C729        C885   1.480       .  S
C730        C807   1.487       .  S
C731        C854   1.478       .  S
C732        H733   1.113       .  S
C732        C738   1.529       .  S
C732        C737   1.533       .  S
C732        C736   1.532       .  S
C734        H735   1.113       .  S
C734        C740   1.531       .  S
C734        C739   1.523       .  S
C734        C741   1.532       .  S
C736        C739   1.366       .  D
C736        C871   1.467       .  S
C737        C740   1.374       .  D
C737        C857   1.483       .  S
C738        C741   1.367       .  D
C738        C882   1.470       .  S
C739        C812   1.475       .  S
C740        C829   1.468       .  S
C741        C843   1.470       .  S
Zn742       O746   1.956       .  S
Zn742       O747   1.986       .  S
Zn742       O751   1.958       .  S
Zn742       O758   1.985       .  S
Zn743       O746   1.952       .  S
Zn743       O748   1.989       .  S
Zn743       O750   1.999       .  S
Zn743       O754   2.011       .  S
Zn744       O746   1.965       .  S
Zn744       O749   2.006       .  S
Zn744       O752   1.995       .  S
Zn744       O755   2.033       .  S
Zn745       O746   1.960       .  S
Zn745       O753   2.089       .  S
Zn745       O756   2.091       .  S
Zn745       O757   2.092       .  S
O747        C759   1.266       .  A
O748        C760   1.270       .  A
O749        C761   1.271       .  A
O750        C759   1.271       .  A
O751        C761   1.266       .  A
O752        C760   1.270       .  A
O753        C762   1.284       .  A
O754        C763   1.273       .  A
O755        C762   1.276       .  A
O756        C763   1.284       .  A
O757        C764   1.283       .  A
O758        C764   1.269       .  A
C759        C815   1.483       .  S
C760        C826   1.484       .  S
C761        C840   1.475       .  S
C762        C784   1.481       .  S
C763        C783   1.477       .  S
C764        C782   1.471       .  S
Zn765      O2726   2.036   1_455  S
Zn765       O781   2.006   1_554  S
Zn766      O1095   1.984       .  S
Zn766       O773   2.040       .  S
Zn766       O777   2.024   1_554  S
Zn767       O769   1.980   1_455  S
Zn767       O772   2.058       .  S
Zn767      O2731   2.041   1_455  S
Zn767       O778   2.015   1_554  S
Zn768       O769   1.993   1_456  S
Zn768       O776   2.076       .  S
Zn768      O2409   2.090   1_455  S
O769      Zn2396   1.981       .  S
O770      Zn1743   2.039       .  S
O770        C782   1.275       .  A
O771        C783   1.276       .  A
O772        C784   1.277       .  A
O773        C782   1.275       .  A
O774        C784   1.275       .  A
O775      Zn1745   2.051       .  S
O775        C783   1.277       .  A
O776        C785   1.280       .  A
O777        C786   1.272       .  A
O778        C785   1.272       .  A
O779      Zn1094   2.087   1_565  S
O779        C786   1.281       .  A
O780        C787   1.278       .  A
O781        C787   1.270       .  A
Zn788       O793   2.042       .  S
Zn788       O797   2.023       .  S
Zn789      O1444   1.988       .  S
Zn789       O794   2.019       .  S
Zn789      O1774   2.052       .  S
Zn790       O792   1.983       .  S
Zn790      O2102   2.085   1_455  S
Zn790      O2757   2.085   1_445  S
Zn791      O1770   1.988   1_565  S
Zn791       O799   2.022       .  S
Zn791       O802   2.049       .  S
Zn791      O1781   2.066       .  S
O792      Zn2093   1.984   1_455  S
O792      Zn2747   1.987   1_445  S
O793        C805   1.275       .  A
O794        C806   1.271       .  A
O795        C807   1.283       .  A
O796      Zn2745   2.050   1_455  S
O796        C805   1.276       .  A
O797        C807   1.272       .  A
O798      Zn1442   2.089       .  S
O798        C806   1.283       .  A
O799        C808   1.273       .  A
O800        C809   1.275       .  A
O801      Zn1768   2.082   1_565  S
O801        C808   1.283       .  A
O802        C809   1.277       .  A
O803      Zn2747   2.057   1_455  S
O803        C810   1.278       .  A
O804        C810   1.276       .  A
C811        C812   1.398       .  A
C811        C816   1.406   1_455  A
C811        H818   1.083       .  S
C812        C813   1.407       .  A
C813       C2770   1.394       .  A
C813        N820   1.427       .  S
C814       C1791   1.395       .  A
C814        C815   1.401       .  A
C814        H819   1.084       .  S
C815       C1794   1.419       .  A
C816       C2771   1.419       .  A
C816        N817   1.432       .  S
N817        H821   1.046       .  S
N817        H822   1.046       .  S
N820        H823   1.046       .  S
N820       H2780   1.045       .  S
H824       N1798   1.046       .  S
C825        C826   1.411       .  A
C825        H832   1.083       .  S
C827        C828   1.398       .  A
C827        N834   1.433       .  S
C828        C829   1.401       .  A
C828        H833   1.084       .  S
C829        C830   1.409       .  A
C830        N831   1.438       .  S
N831        H835   1.045       .  S
N831        H836   1.044   1_565  S
N834        H838   1.046       .  S
C839        C840   1.410       .  A
C839        C844   1.407       .  A
C839        H846   1.084       .  S
C840        C841   1.409       .  A
C841        C842   1.392       .  A
C841        N848   1.433       .  S
C842        C843   1.399       .  A
C842        H847   1.081       .  S
C843        C844   1.407       .  A
C844        N845   1.439       .  S
N845        H849   1.046       .  S
N845        H850   1.044       .  S
N848        H851   1.046       .  S
N848        H852   1.046       .  S
C853        C858   1.404   1_545  A
C853        H860   1.084       .  S
C855        C856   1.398       .  A
C856        C857   1.407       .  A
C856        H861   1.077       .  S
C857        C858   1.404       .  A
C858        N859   1.431       .  S
N859        H863   1.046   1_565  S
N859        H864   1.045       .  S
N862        H865   1.047       .  S
N862        H866   1.044       .  S
C867       C2824   1.403   1_455  A
C867        C872   1.392       .  A
C867       H2830   1.084       .  S
C868       C1845   1.403       .  A
C868       C1847   1.417       .  A
C869       C2824   1.417       .  A
C869        C870   1.404   1_655  A
C869       N2832   1.433       .  S
C870        C871   1.398       .  A
C870        H875   1.084       .  S
C871        C872   1.411       .  A
C872        N873   1.435       .  S
N873        H877   1.045       .  S
N873        H878   1.044       .  S
H874       C1845   1.084       .  S
N876       C1847   1.433       .  S
N876        H879   1.045       .  S
N876       H1858   1.045       .  S
H880       N2832   1.045       .  S
C881        C882   1.400       .  A
C881        C886   1.409       .  A
C881        H888   1.084       .  S
C882        C883   1.401       .  A
C883        C884   1.391       .  A
C883        N890   1.429       .  S
C884        C885   1.402       .  A
C884        H889   1.084       .  S
C885        C886   1.420       .  A
C886        N887   1.438       .  S
N887        H891   1.045       .  S
N887        H892   1.046       .  S
N890        H893   1.045       .  S
N890        H894   1.045       .  S
C895        C896   1.411       .  A
C895        C900   1.392       .  A
C895        H902   1.077       .  S
C896        C897   1.409       .  A
C897        C898   1.399       .  A
C897        N904   1.429       .  S
C898       C1877   1.404       .  A
C898       H1881   1.085       .  S
C899       C2854   1.403       .  A
C899       C2856   1.399   1_455  A
C900       C1877   1.399       .  A
C900       N1879   1.433       .  S
N901       C2856   1.433       .  S
N901       H2861   1.045       .  S
N901        H906   1.045       .  S
H903       C2854   1.085       .  S
N904        H907   1.046       .  S
N904        H908   1.045       .  S
H905       N1879   1.047       .  S
C909        C910   1.399       .  A
C909        C914   1.399       .  A
C909        H916   1.085       .  S
C910        C911   1.405       .  A
C911        C912   1.398       .  A
C911        N918   1.431       .  S
C914        N915   1.432       .  S
N915        H919   1.046       .  S
N918        H921   1.045       .  S
N918        H922   1.046       .  S
C923        C924   1.396       .  A
C923        C928   1.404       .  A
C923        H930   1.084       .  S
C924        C925   1.410       .  A
C925        C926   1.398       .  A
C925        N932   1.432       .  S
C926        C927   1.395       .  A
C926        H931   1.084       .  S
C927        C928   1.413       .  A
C928        N929   1.437       .  S
N929        H933   1.045       .  S
N929        H934   1.047       .  S
N932        H935   1.045       .  S
N932        H936   1.046       .  S
C937        C938   1.399       .  A
C937        C942   1.392       .  A
C937        H944   1.085       .  S
C938        C939   1.407       .  A
C939        C940   1.402       .  A
C939        N946   1.437       .  S
C940       C1919   1.412       .  A
C940       H1923   1.084       .  S
C941       C2896   1.412       .  A
C941       C2898   1.413   1_455  A
C942       C1919   1.413       .  A
C942       N1921   1.433       .  S
N943       C2898   1.433       .  S
N943       H2903   1.046   1_655  S
N943        H948   1.046       .  S
H945       C2896   1.083       .  S
N946        H949   1.043       .  S
N946        H950   1.047       .  S
H947       N1921   1.046       .  S
C951        C956   1.409       .  A
C953        C954   1.395       .  A
C954        C955   1.398       .  A
C954        H959   1.081       .  S
C955        C956   1.406       .  A
C956        N957   1.438       .  S
N957        H961   1.048       .  S
N957        H962   1.041       .  S
N960        H963   1.042       .  S
C965        C966   1.414       .  A
C965        C970   1.406       .  A
C965        H972   1.084       .  S
C966        C967   1.413       .  A
C967        C968   1.387       .  A
C967        N974   1.433       .  S
C968        C969   1.400       .  A
C968        H973   1.077       .  S
C969        C970   1.401       .  A
C970        N971   1.431       .  S
N971        H975   1.046       .  S
N971        H976   1.045       .  S
N974        H977   1.044       .  S
N974        H978   1.046       .  S
Zn979       O983   1.948       .  S
Zn979       O984   2.003       .  S
Zn979       O988   1.982       .  S
Zn979       O995   2.013       .  S
Zn980       O983   1.955       .  S
Zn980       O985   2.023       .  S
Zn980       O987   1.994       .  S
Zn980       O991   2.022       .  S
Zn981       O983   1.945       .  S
Zn981       O986   2.001       .  S
Zn981       O989   1.986       .  S
Zn981       O992   2.020       .  S
Zn982       O983   1.950       .  S
Zn982       O990   2.089       .  S
Zn982       O993   2.088       .  S
Zn982       O994   2.084       .  S
O984        C996   1.270       .  A
O985        C997   1.272       .  A
O986        C998   1.270       .  A
O987        C996   1.271       .  A
O988        C998   1.268       .  A
O989        C997   1.270       .  A
O990        C999   1.284       .  A
O991       C1000   1.275       .  A
O992        C999   1.274       .  A
O993       C1000   1.284       .  A
O994       C1001   1.283       .  A
O995       C1001   1.273       .  A
C996       C1267   1.485       .  S
C997       C1278   1.490       .  S
C998       C1292   1.486       .  S
C999       C1135   1.479       .  S
C1000      C1136   1.478       .  S
C1001      C1131   1.475       .  S
C1002      H1003   1.113       .  S
C1002      C1008   1.531       .  S
C1002      C1007   1.535       .  S
C1002      C1006   1.536       .  S
C1004      H1005   1.114       .  S
C1004      C1010   1.524       .  S
C1004      C1009   1.530       .  S
C1004      C1011   1.524       .  S
C1006      C1009   1.376       .  D
C1006      C1222   1.485       .  S
C1007      C1010   1.365       .  D
C1007      C1236   1.465       .  S
C1008      C1011   1.365       .  D
C1008      C1250   1.461       .  S
C1009      C1264   1.469       .  S
C1010      C1281   1.471       .  S
C1011      C1295   1.471       .  S
Zn1012     O1016   1.917       .  S
Zn1012     O1017   2.052       .  S
Zn1012     O1021   2.061       .  S
Zn1012     O1028   2.061       .  S
Zn1013     O1016   1.863       .  S
Zn1013     O1018   1.935       .  S
Zn1013     O1020   1.947       .  S
Zn1013     O1024   1.952       .  S
Zn1014     O1016   1.918       .  S
Zn1014     O1019   2.046       .  S
Zn1014     O1022   2.057       .  S
Zn1014     O1025   2.028       .  S
Zn1015     O1016   1.927       .  S
Zn1015     O1023   2.040       .  S
Zn1015     O1026   2.073       .  S
Zn1015     O1027   2.055       .  S
O1017      C1029   1.277       .  A
O1018      C1030   1.261       .  A
O1019      C1031   1.280       .  A
O1020      C1029   1.261       .  A
O1021      C1031   1.281       .  A
O1022      C1030   1.277       .  A
O1023      C1032   1.281       .  A
O1024      C1033   1.259       .  A
O1025      C1032   1.279       .  A
O1026      C1033   1.276       .  A
O1027      C1034   1.281       .  A
O1028      C1034   1.282       .  A
C1029      C1253   1.456       .  S
C1030      C1225   1.464       .  S
C1031      C1111   1.476       .  S
C1032      C1113   1.462       .  S
C1033      C1239   1.462       .  S
C1034      C1112   1.479       .  S
Zn1035     O1039   1.964       .  S
Zn1035     O1040   2.021       .  S
Zn1035     O1044   1.991       .  S
Zn1035     O1051   1.994       .  S
Zn1036     O1039   1.952       .  S
Zn1036     O1041   2.091       .  S
Zn1036     O1043   2.100       .  S
Zn1036     O1047   2.097       .  S
Zn1037     O1039   1.969       .  S
Zn1037     O1042   1.995       .  S
Zn1037     O1045   2.033       .  S
Zn1037     O1048   2.011       .  S
Zn1038     O1039   1.952       .  S
Zn1038     O1046   1.969       .  S
Zn1038     O1049   2.008       .  S
Zn1038     O1050   1.981       .  S
O1040      C1052   1.274       .  A
O1041      C1053   1.285       .  A
O1042      C1054   1.272       .  A
O1043      C1052   1.287       .  A
O1044      C1054   1.268       .  A
O1045      C1053   1.276       .  A
O1046      C1055   1.268       .  A
O1047      C1056   1.286       .  A
O1048      C1055   1.270       .  A
O1049      C1056   1.272       .  A
O1050      C1057   1.267       .  A
O1051      C1057   1.270       .  A
C1052      C1132   1.490       .  S
C1053      C1134   1.490       .  S
C1054      C1194   1.485       .  S
C1055      C1211   1.483       .  S
C1056      C1133   1.486       .  S
C1057      C1180   1.470       .  S
C1058      H1059   1.113       .  S
C1058      C1064   1.531       .  S
C1058      C1063   1.535       .  S
C1058      C1062   1.530       .  S
C1060      H1061   1.113       .  S
C1060      C1066   1.531       .  S
C1060      C1065   1.522       .  S
C1060      C1067   1.533       .  S
C1062      C1065   1.362       .  D
C1062      C1197   1.464       .  S
C1063      C1066   1.374       .  D
C1063      C1183   1.482       .  S
C1064      C1067   1.370       .  D
C1064      C1208   1.474       .  S
C1065      C1138   1.471       .  S
C1066      C1155   1.468       .  S
C1067      C1169   1.469       .  S
Zn1068     O1072   1.956       .  S
Zn1068     O1073   2.003       .  S
Zn1068     O1077   1.963       .  S
Zn1068     O1084   1.993       .  S
Zn1069     O1072   1.955       .  S
Zn1069     O1074   1.998       .  S
Zn1069     O1076   1.991       .  S
Zn1069     O1080   2.017       .  S
Zn1070     O1072   1.957       .  S
Zn1070     O1075   1.991       .  S
Zn1070     O1078   1.990       .  S
Zn1070     O1081   2.031       .  S
Zn1071     O1072   1.958       .  S
Zn1071     O1079   2.098       .  S
Zn1071     O1082   2.089       .  S
Zn1071     O1083   2.093       .  S
O1073      C1085   1.268       .  A
O1074      C1086   1.270       .  A
O1075      C1087   1.269       .  A
O1076      C1085   1.270       .  A
O1077      C1087   1.266       .  A
O1078      C1086   1.270       .  A
O1079      C1088   1.285       .  A
O1080      C1089   1.274       .  A
O1081      C1088   1.275       .  A
O1082      C1089   1.284       .  A
O1083      C1090   1.284       .  A
O1084      C1090   1.270       .  A
C1085      C1141   1.480       .  S
C1086      C1152   1.485       .  S
C1087      C1166   1.473       .  S
C1088      C1110   1.485       .  S
C1089      C1109   1.476       .  S
C1090      C1108   1.474       .  S
Zn1091     O1421   1.978       .  S
Zn1091     O1426   2.053       .  S
Zn1091     O1107   2.000   1_554  S
Zn1092     O2399   1.981       .  S
Zn1092     O1423   2.044       .  S
Zn1092     O1099   2.050       .  S
Zn1092     O1103   2.025   1_554  S
Zn1093     O1095   1.983   1_545  S
Zn1093     O1098   2.068       .  S
Zn1093     O1104   2.026   1_554  S
Zn1094     O1095   1.988   1_546  S
Zn1094     O1102   2.068       .  S
Zn1094     O1758   2.066   1_545  S
O1095     Zn1743   1.979       .  S
O1096     Zn2069   2.038       .  S
O1096      C1108   1.275       .  A
O1097     Zn1744   2.042   1_545  S
O1097      C1109   1.275       .  A
O1098      C1110   1.278       .  A
O1099      C1108   1.277       .  A
O1100     Zn1743   2.051   1_545  S
O1100      C1110   1.276       .  A
O1101     Zn2071   2.050       .  S
O1101      C1109   1.277       .  A
O1102      C1111   1.280       .  A
O1103      C1112   1.272       .  A
O1104      C1111   1.273       .  A
O1105     Zn2398   2.074       .  S
O1105      C1112   1.279       .  A
O1106     Zn1420   2.050       .  S
O1106      C1113   1.277       .  A
O1107      C1113   1.270       .  A
Zn1114     O1770   1.986       .  S
Zn1114     O1119   2.044       .  S
Zn1114     O1123   2.019       .  S
Zn1114     O1782   2.054   1_545  S
Zn1115     O2748   1.987       .  S
Zn1115     O1120   2.022       .  S
Zn1115     O2100   2.042       .  S
Zn1115     O1778   2.044   1_545  S
Zn1116     O1118   1.985       .  S
Zn1116     O1447   2.080       .  S
Zn1117     O2096   1.990       .  S
Zn1117     O1125   2.029       .  S
Zn1117     O1128   2.053       .  S
Zn1117     O2107   2.057       .  S
O1118     Zn1440   1.991       .  S
O1119      C1131   1.277       .  A
O1120      C1132   1.272       .  A
O1121     Zn1768   2.080       .  S
O1121      C1133   1.283       .  A
O1122      C1131   1.275       .  A
O1123      C1133   1.272       .  A
O1124     Zn2746   2.090       .  S
O1124      C1132   1.284       .  A
O1125      C1134   1.274       .  A
O1126     Zn1441   2.050       .  S
O1126      C1135   1.277       .  A
O1127     Zn2094   2.086       .  S
O1127      C1134   1.283       .  A
O1128      C1135   1.277       .  A
O1129      C1136   1.278       .  A
O1130     Zn1440   2.046       .  S
O1130      C1136   1.276       .  A
C1137      C1138   1.397       .  A
C1137      C1142   1.404       .  A
C1137      H1144   1.083       .  S
C1138      C1139   1.404       .  A
C1139      N1146   1.429       .  S
C1140      C2117   1.393       .  A
C1140      C1141   1.398       .  A
C1140      H1145   1.084       .  S
C1141      C2120   1.417       .  A
C1142      N1143   1.432       .  S
N1143      H1147   1.046       .  S
N1143      H1148   1.045       .  S
N1146      H1149   1.045       .  S
H1150      N2124   1.045       .  S
C1151      C1152   1.412       .  A
C1151      C1808   1.403   1_545  A
C1151      H1158   1.083       .  S
C1152      C1805   1.413   1_545  A
C1153      C1478   1.413       .  A
C1153      C1154   1.396       .  A
C1153      N1160   1.433       .  S
C1154      C1155   1.400       .  A
C1154      H1159   1.084       .  S
C1155      C1156   1.410       .  A
C1156      C1477   1.402       .  A
C1156      N1157   1.438       .  S
N1157      H1161   1.043       .  S
N1157      H1162   1.045       .  S
N1160      H1489   1.046       .  S
N1160      H1164   1.046       .  S
H1163      N1812   1.046   1_545  S
C1165      C1166   1.411       .  A
C1165      C1170   1.403       .  A
C1165      H1172   1.084       .  S
C1166      C1167   1.409       .  A
C1167      C1168   1.392       .  A
C1167      N1174   1.434       .  S
C1168      C1169   1.401       .  A
C1168      H1173   1.080       .  S
C1169      C1170   1.402       .  A
C1170      N1171   1.432       .  S
N1171      H1175   1.046       .  S
N1171      H1176   1.044       .  S
N1174      H1177   1.046       .  S
N1174      H1178   1.046       .  S
C1179      C1506   1.411       .  A
C1179      C1184   1.408       .  A
C1179      H1186   1.084       .  S
C1180      C1831   1.409       .  A
C1180      C1833   1.403   1_545  A
C1181      C1506   1.403       .  A
C1181      C1182   1.394       .  A
C1181      N1514   1.433       .  S
C1182      C1183   1.405       .  A
C1182      H1187   1.079       .  S
C1183      C1184   1.406       .  A
C1184      N1185   1.431       .  S
N1185      H1189   1.045       .  S
N1185      H1190   1.045       .  S
N1188      C1833   1.439       .  S
N1188      H1191   1.045       .  S
N1188      H1192   1.047       .  S
C1193      C1198   1.392       .  A
C1194      C2171   1.403       .  A
C1194      C2173   1.418       .  A
C1195      C1196   1.402       .  A
C1196      C1197   1.395       .  A
C1196      H1201   1.084       .  S
C1197      C1198   1.410       .  A
C1198      N1199   1.435       .  S
N1199      H1203   1.046       .  S
N1199      H1204   1.042       .  S
H1200      C2171   1.084       .  S
N1202      C2173   1.433       .  S
N1202      H1205   1.045       .  S
N1202      H2184   1.046       .  S
C1207      C1208   1.401       .  A
C1207      C1212   1.411       .  A
C1207      H1214   1.084       .  S
C1208      C1209   1.402       .  A
C1209      C1210   1.392       .  A
C1209      N1216   1.429       .  S
C1210      C1211   1.402       .  A
C1210      H1215   1.084       .  S
C1211      C1212   1.420       .  A
C1212      N1213   1.438       .  S
N1213      H1217   1.045       .  S
N1213      H1218   1.046       .  S
N1216      H1219   1.045       .  S
N1216      H1220   1.045       .  S
C1221      C1222   1.409       .  A
C1221      C1226   1.392       .  A
C1221      H1228   1.074       .  S
C1222      C1223   1.407       .  A
C1223      C1224   1.402       .  A
C1223      N1230   1.431       .  S
C1224      C2203   1.406       .  A
C1224      H2207   1.084       .  S
C1226      C2203   1.400       .  A
C1226      N2205   1.433       .  S
N1227      H1232   1.043       .  S
N1230      H1233   1.046       .  S
N1230      H1234   1.045       .  S
H1231      N2205   1.048       .  S
C1235      C1236   1.397       .  A
C1235      C1240   1.399       .  A
C1235      H1242   1.085       .  S
C1236      C1237   1.406       .  A
C1237      C1238   1.400       .  A
C1237      N1244   1.430       .  S
C1238      C1891   1.400   1_545  A
C1238      H1895   1.084       .  S
C1239      C1564   1.398       .  A
C1239      C1566   1.409       .  A
C1240      C1891   1.406   1_545  A
C1240      N1241   1.432   1_545  S
N1241      H1245   1.046   1_565  S
N1241      H1898   1.045       .  S
H1243      C1564   1.084       .  S
N1244      H1247   1.046       .  S
N1244      H1248   1.044       .  S
H1246      N1567   1.046       .  S
C1249      C1250   1.395       .  A
C1249      C1254   1.398       .  A
C1249      H1256   1.082       .  S
C1250      C1251   1.408       .  A
C1251      C1252   1.399       .  A
C1251      N1258   1.431       .  S
C1252      C1253   1.397       .  A
C1252      H1257   1.084       .  S
C1253      C1254   1.407       .  A
C1254      N1255   1.432       .  S
N1255      H1259   1.047       .  S
N1255      H1260   1.044       .  S
N1258      H1261   1.045       .  S
N1258      H1262   1.046       .  S
C1263      C1264   1.398       .  A
C1263      C1268   1.391       .  A
C1263      H1270   1.080       .  S
C1264      C1265   1.410       .  A
C1265      C1266   1.406       .  A
C1265      N1272   1.437       .  S
C1266      C2245   1.413       .  A
C1266      H2249   1.084       .  S
C1268      C2245   1.410       .  A
C1268      N2247   1.433       .  S
N1269      H1274   1.045       .  S
N1272      H1275   1.044       .  S
N1272      H1276   1.046       .  S
H1273      N2247   1.046       .  S
C1277      C1930   1.412       .  A
C1277      C1282   1.405   1_565  A
C1277      H1936   1.083       .  S
C1278      C1603   1.412       .  A
C1278      C1605   1.416       .  A
C1279      C1930   1.414   1_545  A
C1279      C1280   1.395       .  A
C1279      N1938   1.433       .  S
C1280      C1281   1.398       .  A
C1280      H1285   1.081       .  S
C1281      C1282   1.402       .  A
C1282      N1283   1.431       .  S
N1283      H1287   1.046   1_545  S
N1283      H1288   1.045       .  S
H1284      C1603   1.083       .  S
N1286      C1605   1.433       .  S
N1286      H1289   1.046       .  S
N1286      H1616   1.046       .  S
H1290      N1938   1.046       .  S
C1291      C1292   1.413       .  A
C1291      C1296   1.405       .  A
C1291      H1298   1.083       .  S
C1292      C1293   1.421       .  A
C1293      C1294   1.390       .  A
C1293      N1300   1.433       .  S
C1294      C1295   1.397       .  A
C1294      H1299   1.082       .  S
C1295      C1296   1.403       .  A
C1296      N1297   1.431       .  S
N1297      H1301   1.046       .  S
N1297      H1302   1.045       .  S
N1300      H1303   1.045       .  S
N1300      H1304   1.046       .  S
Zn1305     O1309   1.961       .  S
Zn1305     O1310   2.017       .  S
Zn1305     O1314   1.983       .  S
Zn1305     O1321   2.018       .  S
Zn1306     O1309   1.949       .  S
Zn1306     O1311   2.006       .  S
Zn1306     O1313   1.983       .  S
Zn1306     O1317   2.033       .  S
Zn1307     O1309   1.956       .  S
Zn1307     O1312   1.991       .  S
Zn1307     O1315   1.977       .  S
Zn1307     O1318   1.999       .  S
Zn1308     O1309   1.955       .  S
Zn1308     O1316   2.090       .  S
Zn1308     O1319   2.086       .  S
Zn1308     O1320   2.087       .  S
O1310      C1322   1.271       .  A
O1311      C1323   1.270       .  A
O1312      C1324   1.268       .  A
O1313      C1322   1.270       .  A
O1314      C1324   1.268       .  A
O1315      C1323   1.268       .  A
O1316      C1325   1.284       .  A
O1317      C1326   1.276       .  A
O1318      C1325   1.271       .  A
O1319      C1326   1.283       .  A
O1320      C1327   1.283       .  A
O1321      C1327   1.273       .  A
C1322      C1593   1.488       .  S
C1323      C1604   1.484       .  S
C1324      C1618   1.484       .  S
C1325      C1461   1.474       .  S
C1326      C1462   1.482       .  S
C1327      C1457   1.479       .  S
C1328      H1329   1.112       .  S
C1328      C1334   1.526       .  S
C1328      C1333   1.532       .  S
C1328      C1332   1.531       .  S
C1330      H1331   1.114       .  S
C1330      C1336   1.528       .  S
C1330      C1335   1.533       .  S
C1330      C1337   1.528       .  S
C1332      C1335   1.375       .  D
C1332      C1548   1.484       .  S
C1333      C1336   1.369       .  D
C1333      C1562   1.464       .  S
C1334      C1337   1.363       .  D
C1334      C1576   1.463       .  S
C1335      C1590   1.466       .  S
C1336      C1607   1.478       .  S
C1337      C1621   1.466       .  S
Zn1338     O1342   1.910       .  S
Zn1338     O1343   2.049       .  S
Zn1338     O1347   2.060       .  S
Zn1338     O1354   2.067       .  S
Zn1339     O1342   1.863       .  S
Zn1339     O1344   1.914       .  S
Zn1339     O1346   1.938       .  S
Zn1339     O1350   1.950       .  S
Zn1340     O1342   1.922       .  S
Zn1340     O1345   2.045       .  S
Zn1340     O1348   2.076       .  S
Zn1340     O1351   2.041       .  S
Zn1341     O1342   1.925       .  S
Zn1341     O1349   2.045       .  S
Zn1341     O1352   2.050       .  S
Zn1341     O1353   2.038       .  S
O1343      C1355   1.278       .  A
O1344      C1356   1.257       .  A
O1345      C1357   1.281       .  A
O1346      C1355   1.263       .  A
O1347      C1357   1.282       .  A
O1348      C1356   1.278       .  A
O1349      C1358   1.281       .  A
O1350      C1359   1.259       .  A
O1351      C1358   1.280       .  A
O1352      C1359   1.273       .  A
O1353      C1360   1.278       .  A
O1354      C1360   1.282       .  A
C1355      C1579   1.453       .  S
C1356      C1551   1.464       .  S
C1357      C1437   1.473       .  S
C1358      C1439   1.468       .  S
C1359      C1565   1.459       .  S
C1360      C1438   1.478       .  S
Zn1361     O1365   1.963       .  S
Zn1361     O1366   2.028       .  S
Zn1361     O1370   1.983       .  S
Zn1361     O1377   1.999       .  S
Zn1362     O1365   1.949       .  S
Zn1362     O1367   2.095       .  S
Zn1362     O1369   2.099       .  S
Zn1362     O1373   2.086       .  S
Zn1363     O1365   1.967       .  S
Zn1363     O1368   1.976       .  S
Zn1363     O1371   2.016       .  S
Zn1363     O1374   1.997       .  S
Zn1364     O1365   1.951       .  S
Zn1364     O1372   1.962       .  S
Zn1364     O1375   2.013       .  S
Zn1364     O1376   1.997       .  S
O1366      C1378   1.275       .  A
O1367      C1379   1.285       .  A
O1368      C1380   1.270       .  A
O1369      C1378   1.286       .  A
O1370      C1380   1.269       .  A
O1371      C1379   1.273       .  A
O1372      C1381   1.267       .  A
O1373      C1382   1.285       .  A
O1374      C1381   1.267       .  A
O1375      C1382   1.274       .  A
O1376      C1383   1.268       .  A
O1377      C1383   1.270       .  A
C1378      C1458   1.492       .  S
C1379      C1460   1.488       .  S
C1380      C1520   1.478       .  S
C1381      C1537   1.481       .  S
C1382      C1459   1.485       .  S
C1383      C1506   1.476       .  S
C1384      H1385   1.113       .  S
C1384      C1390   1.531       .  S
C1384      C1389   1.535       .  S
C1384      C1388   1.529       .  S
C1386      H1387   1.113       .  S
C1386      C1392   1.532       .  S
C1386      C1391   1.523       .  S
C1386      C1393   1.530       .  S
C1388      C1391   1.364       .  D
C1388      C1523   1.466       .  S
C1389      C1392   1.374       .  D
C1389      C1509   1.483       .  S
C1390      C1393   1.364       .  D
C1390      C1534   1.466       .  S
C1391      C1464   1.468       .  S
C1392      C1481   1.467       .  S
C1393      C1495   1.470       .  S
Zn1394     O1398   1.956       .  S
Zn1394     O1399   1.994       .  S
Zn1394     O1403   1.964       .  S
Zn1394     O1410   1.987       .  S
Zn1395     O1398   1.948       .  S
Zn1395     O1400   1.992       .  S
Zn1395     O1402   1.981       .  S
Zn1395     O1406   2.009       .  S
Zn1396     O1398   1.954       .  S
Zn1396     O1401   1.994       .  S
Zn1396     O1404   1.995       .  S
Zn1396     O1407   2.037       .  S
Zn1397     O1398   1.952       .  S
Zn1397     O1405   2.088       .  S
Zn1397     O1408   2.076       .  S
Zn1397     O1409   2.085       .  S
O1399      C1411   1.267       .  A
O1400      C1412   1.269       .  A
O1401      C1413   1.270       .  A
O1402      C1411   1.269       .  A
O1403      C1413   1.267       .  A
O1404      C1412   1.271       .  A
O1405      C1414   1.283       .  A
O1406      C1415   1.273       .  A
O1407      C1414   1.276       .  A
O1408      C1415   1.283       .  A
O1409      C1416   1.283       .  A
O1410      C1416   1.270       .  A
C1411      C1467   1.481       .  S
C1412      C1478   1.486       .  S
C1413      C1492   1.474       .  S
C1414      C1436   1.485       .  S
C1415      C1435   1.471       .  S
C1416      C1434   1.468       .  S
Zn1417     O1747   1.976       .  S
Zn1417     O1752   2.054       .  S
Zn1417     O1433   2.005   1_554  S
Zn1418     O2725   1.978       .  S
Zn1418     O1749   2.039       .  S
Zn1418     O1425   2.038       .  S
Zn1418     O1429   2.018   1_554  S
Zn1419     O1421   1.981       .  S
Zn1419     O1424   2.069       .  S
Zn1419     O1430   2.029   1_554  S
Zn1420     O1421   1.989   1_556  S
Zn1420     O1428   2.056       .  S
O1422     Zn2395   2.030       .  S
O1422      C1434   1.274       .  A
O1423      C1435   1.276       .  A
O1424      C1436   1.278       .  A
O1425      C1434   1.276       .  A
O1426      C1436   1.276       .  A
O1427     Zn2397   2.035       .  S
O1427      C1435   1.275       .  A
O1428      C1437   1.278       .  A
O1429      C1438   1.270       .  A
O1430      C1437   1.274       .  A
O1431     Zn2724   2.081       .  S
O1431      C1438   1.280       .  A
O1432     Zn1746   2.059       .  S
O1432      C1439   1.278       .  A
O1433      C1439   1.270       .  A
Zn1440     O1445   2.054       .  S
Zn1440     O1449   2.019       .  S
Zn1441     O2096   1.988       .  S
Zn1441     O1446   2.025       .  S
Zn1441     O2426   2.036       .  S
Zn1442     O1444   1.982       .  S
Zn1442     O1773   2.075       .  S
Zn1443     O2422   1.988       .  S
Zn1443     O1451   2.024       .  S
Zn1443     O1454   2.044       .  S
Zn1443     O2433   2.059       .  S
O1444     Zn1766   1.986       .  S
O1445      C1457   1.277       .  A
O1446      C1458   1.272       .  A
O1447      C1459   1.282       .  A
O1448      C1457   1.276       .  A
O1449      C1459   1.272       .  A
O1450     Zn2094   2.092       .  S
O1450      C1458   1.284       .  A
O1451      C1460   1.273       .  A
O1452     Zn1767   2.043       .  S
O1452      C1461   1.276       .  A
O1453     Zn2420   2.083       .  S
O1453      C1460   1.283       .  A
O1454      C1461   1.276       .  A
O1455      C1462   1.278       .  A
O1456     Zn1766   2.047       .  S
O1456      C1462   1.276       .  A
C1463      C1464   1.397       .  A
C1463      C1468   1.403       .  A
C1463      H1470   1.083       .  S
C1464      C1465   1.404       .  A
C1465      N1472   1.429       .  S
C1466      C2443   1.392       .  A
C1466      C1467   1.404       .  A
C1466      H1471   1.084       .  S
C1467      C2446   1.419       .  A
C1468      N1469   1.432       .  S
N1469      H1473   1.045       .  S
N1469      H1474   1.046       .  S
N1472      H1475   1.046       .  S
H1476      N2450   1.045       .  S
C1477      C1478   1.411       .  A
C1477      H1484   1.083       .  S
C1479      C1804   1.411       .  A
C1479      C1480   1.397       .  A
C1479      N1486   1.432       .  S
C1480      C1481   1.400       .  A
C1480      H1485   1.083       .  S
C1481      C1482   1.409       .  A
C1482      C1803   1.402       .  A
C1482      N1483   1.438       .  S
N1483      H1487   1.044       .  S
N1483      H1488   1.046       .  S
N1486      H1815   1.046       .  S
N1486      H1490   1.046       .  S
C1491      C1492   1.410       .  A
C1491      C1496   1.403       .  A
C1491      H1498   1.084       .  S
C1492      C1493   1.409       .  A
C1493      C1494   1.391       .  A
C1493      N1500   1.433       .  S
C1494      C1495   1.398       .  A
C1494      H1499   1.078       .  S
C1495      C1496   1.403       .  A
C1496      N1497   1.432       .  S
N1497      H1501   1.046       .  S
N1497      H1502   1.044       .  S
N1500      H1503   1.046       .  S
N1500      H1504   1.046       .  S
C1505      C1832   1.412       .  A
C1505      C1510   1.409       .  A
C1505      H1512   1.084       .  S
C1507      C1832   1.405       .  A
C1507      C1508   1.393       .  A
C1507      N1840   1.433       .  S
C1508      C1509   1.402       .  A
C1508      H1513   1.076       .  S
C1509      C1510   1.406       .  A
C1510      N1511   1.431       .  S
N1511      H1515   1.046       .  S
N1511      H1516   1.045       .  S
N1514      H1517   1.046       .  S
N1514      H1518   1.046       .  S
C1519      C1524   1.394       .  A
C1520      C2497   1.403       .  A
C1520      C2499   1.417       .  A
C1521      C1522   1.404       .  A
C1522      C1523   1.394       .  A
C1522      H1527   1.084       .  S
C1523      C1524   1.410       .  A
C1524      N1525   1.435       .  S
N1525      H1529   1.044       .  S
N1525      H1530   1.043       .  S
H1526      C2497   1.084       .  S
N1528      C2499   1.433       .  S
N1528      H1531   1.046       .  S
N1528      H2510   1.045       .  S
C1533      C1534   1.399       .  A
C1533      C1538   1.407       .  A
C1533      H1540   1.084       .  S
C1534      C1535   1.399       .  A
C1535      C1536   1.391       .  A
C1535      N1542   1.430       .  S
C1536      C1537   1.405       .  A
C1536      H1541   1.084       .  S
C1537      C1538   1.420       .  A
C1538      N1539   1.438       .  S
N1539      H1543   1.046       .  S
N1539      H1544   1.045       .  S
N1542      H1545   1.045       .  S
N1542      H1546   1.046       .  S
C1547      C1548   1.411       .  A
C1547      C1552   1.397       .  A
C1547      H1554   1.083       .  S
C1548      C1549   1.407       .  A
C1549      C1550   1.398       .  A
C1549      N1556   1.429       .  S
C1550      C2529   1.404       .  A
C1550      H2533   1.085       .  S
C1552      C2529   1.404       .  A
C1552      N2531   1.432       .  S
N1553      H1558   1.046       .  S
N1556      H1559   1.045       .  S
N1556      H1560   1.046       .  S
H1557      N2531   1.045       .  S
C1561      C1562   1.396       .  A
C1561      C1566   1.399       .  A
C1561      H1568   1.084       .  S
C1562      C1563   1.409       .  A
C1563      C1564   1.401       .  A
C1563      N1570   1.432       .  S
C1565      C1890   1.399       .  A
C1565      C1892   1.408       .  A
C1566      N1567   1.431       .  S
N1567      H1571   1.046       .  S
H1569      C1890   1.084       .  S
N1570      H1573   1.046       .  S
N1570      H1574   1.045       .  S
H1572      N1893   1.045       .  S
C1575      C1576   1.397       .  A
C1575      C1580   1.399       .  A
C1575      H1582   1.084       .  S
C1576      C1577   1.409       .  A
C1577      C1578   1.395       .  A
C1577      N1584   1.431       .  S
C1578      C1579   1.392       .  A
C1578      H1583   1.084       .  S
C1579      C1580   1.410       .  A
C1580      N1581   1.432       .  S
N1581      H1585   1.046       .  S
N1581      H1586   1.046       .  S
N1584      H1587   1.044       .  S
N1584      H1588   1.047       .  S
C1589      C1590   1.397       .  A
C1589      C1594   1.390       .  A
C1589      H1596   1.081       .  S
C1590      C1591   1.408       .  A
C1591      C1592   1.404       .  A
C1591      N1598   1.437       .  S
C1592      C2571   1.412       .  A
C1592      H2575   1.083       .  S
C1594      C2571   1.413       .  A
C1594      N2573   1.433       .  S
N1595      H1600   1.046       .  S
N1598      H1601   1.045       .  S
N1598      H1602   1.045       .  S
H1599      N2573   1.045       .  S
C1603      C1608   1.411       .  A
C1604      C1929   1.411       .  A
C1604      C1931   1.415       .  A
C1605      C1606   1.394       .  A
C1606      C1607   1.395       .  A
C1606      H1611   1.078       .  S
C1607      C1608   1.406       .  A
C1608      N1609   1.431       .  S
N1609      H1613   1.046       .  S
N1609      H1614   1.045       .  S
H1610      C1929   1.083       .  S
N1612      C1931   1.433       .  S
N1612      H1615   1.046       .  S
N1612      H1942   1.046       .  S
C1617      C1618   1.414       .  A
C1617      C1622   1.405       .  A
C1617      H1624   1.083       .  S
C1618      C1619   1.421       .  A
C1619      C1620   1.386       .  A
C1619      N1626   1.433       .  S
C1620      C1621   1.392       .  A
C1620      H1625   1.078       .  S
C1621      C1622   1.400       .  A
C1622      N1623   1.431       .  S
N1623      H1627   1.045       .  S
N1623      H1628   1.045       .  S
N1626      H1629   1.045       .  S
N1626      H1630   1.045       .  S
Zn1631     O1635   1.961       .  S
Zn1631     O1636   1.987       .  S
Zn1631     O1640   1.994       .  S
Zn1631     O1647   2.014       .  S
Zn1632     O1635   1.961       .  S
Zn1632     O1637   2.010       .  S
Zn1632     O1639   1.986       .  S
Zn1632     O1643   2.033       .  S
Zn1633     O1635   1.955       .  S
Zn1633     O1638   1.989       .  S
Zn1633     O1641   1.978       .  S
Zn1633     O1644   2.013       .  S
Zn1634     O1635   1.960       .  S
Zn1634     O1642   2.093       .  S
Zn1634     O1645   2.097       .  S
Zn1634     O1646   2.088       .  S
O1636      C1648   1.268       .  A
O1637      C1649   1.271       .  A
O1638      C1650   1.268       .  A
O1639      C1648   1.269       .  A
O1640      C1650   1.269       .  A
O1641      C1649   1.268       .  A
O1642      C1651   1.284       .  A
O1643      C1652   1.276       .  A
O1644      C1651   1.273       .  A
O1645      C1652   1.285       .  A
O1646      C1653   1.284       .  A
O1647      C1653   1.273       .  A
C1648      C1919   1.483       .  S
C1649      C1930   1.485       .  S
C1650      C1944   1.487       .  S
C1651      C1787   1.478       .  S
C1652      C1788   1.485       .  S
C1653      C1783   1.477       .  S
C1654      H1655   1.112       .  S
C1654      C1660   1.529       .  S
C1654      C1659   1.533       .  S
C1654      C1658   1.534       .  S
C1656      H1657   1.114       .  S
C1656      C1662   1.522       .  S
C1656      C1661   1.530       .  S
C1656      C1663   1.524       .  S
C1658      C1661   1.376       .  D
C1658      C1874   1.484       .  S
C1659      C1662   1.364       .  D
C1659      C1888   1.461       .  S
C1660      C1663   1.364       .  D
C1660      C1902   1.465       .  S
C1661      C1916   1.467       .  S
C1662      C1933   1.470       .  S
C1663      C1947   1.469       .  S
Zn1664     O1668   1.910       .  S
Zn1664     O1669   2.052       .  S
Zn1664     O1673   2.061       .  S
Zn1664     O1680   2.060       .  S
Zn1665     O1668   1.858       .  S
Zn1665     O1670   1.923       .  S
Zn1665     O1672   1.957       .  S
Zn1665     O1676   1.950       .  S
Zn1666     O1668   1.918       .  S
Zn1666     O1671   2.038       .  S
Zn1666     O1674   2.047       .  S
Zn1666     O1677   2.033       .  S
Zn1667     O1668   1.919       .  S
Zn1667     O1675   2.054       .  S
Zn1667     O1678   2.056       .  S
Zn1667     O1679   2.048       .  S
O1669      C1681   1.277       .  A
O1670      C1682   1.259       .  A
O1671      C1683   1.280       .  A
O1672      C1681   1.264       .  A
O1673      C1683   1.282       .  A
O1674      C1682   1.275       .  A
O1675      C1684   1.282       .  A
O1676      C1685   1.259       .  A
O1677      C1684   1.279       .  A
O1678      C1685   1.275       .  A
O1679      C1686   1.281       .  A
O1680      C1686   1.282       .  A
C1681      C1905   1.459       .  S
C1682      C1877   1.459       .  S
C1683      C1763   1.472       .  S
C1684      C1765   1.467       .  S
C1685      C1891   1.459       .  S
C1686      C1764   1.476       .  S
Zn1687     O1691   1.962       .  S
Zn1687     O1692   2.022       .  S
Zn1687     O1696   1.974       .  S
Zn1687     O1703   1.990       .  S
Zn1688     O1691   1.950       .  S
Zn1688     O1693   2.097       .  S
Zn1688     O1695   2.103       .  S
Zn1688     O1699   2.094       .  S
Zn1689     O1691   1.970       .  S
Zn1689     O1694   1.986       .  S
Zn1689     O1697   2.039       .  S
Zn1689     O1700   2.008       .  S
Zn1690     O1691   1.956       .  S
Zn1690     O1698   1.978       .  S
Zn1690     O1701   2.016       .  S
Zn1690     O1702   2.005       .  S
O1692      C1704   1.273       .  A
O1693      C1705   1.286       .  A
O1694      C1706   1.272       .  A
O1695      C1704   1.286       .  A
O1696      C1706   1.267       .  A
O1697      C1705   1.276       .  A
O1698      C1707   1.269       .  A
O1699      C1708   1.287       .  A
O1700      C1707   1.269       .  A
O1701      C1708   1.275       .  A
O1702      C1709   1.269       .  A
O1703      C1709   1.269       .  A
C1704      C1784   1.492       .  S
C1705      C1786   1.494       .  S
C1706      C1846   1.479       .  S
C1707      C1863   1.487       .  S
C1708      C1785   1.485       .  S
C1709      C1832   1.479       .  S
C1710      H1711   1.113       .  S
C1710      C1716   1.530       .  S
C1710      C1715   1.532       .  S
C1710      C1714   1.529       .  S
C1712      H1713   1.113       .  S
C1712      C1718   1.534       .  S
C1712      C1717   1.524       .  S
C1712      C1719   1.533       .  S
C1714      C1717   1.364       .  D
C1714      C1849   1.464       .  S
C1715      C1718   1.375       .  D
C1715      C1835   1.486       .  S
C1716      C1719   1.370       .  D
C1716      C1860   1.472       .  S
C1717      C1790   1.475       .  S
C1718      C1807   1.466       .  S
C1719      C1821   1.476       .  S
Zn1720     O1724   1.956       .  S
Zn1720     O1725   1.983       .  S
Zn1720     O1729   1.979       .  S
Zn1720     O1736   1.992       .  S
Zn1721     O1724   1.962       .  S
Zn1721     O1726   1.996       .  S
Zn1721     O1728   1.999       .  S
Zn1721     O1732   2.014       .  S
Zn1722     O1724   1.962       .  S
Zn1722     O1727   1.999       .  S
Zn1722     O1730   1.996       .  S
Zn1722     O1733   2.034       .  S
Zn1723     O1724   1.963       .  S
Zn1723     O1731   2.090       .  S
Zn1723     O1734   2.082       .  S
Zn1723     O1735   2.091       .  S
O1725      C1737   1.267       .  A
O1726      C1738   1.270       .  A
O1727      C1739   1.270       .  A
O1728      C1737   1.270       .  A
O1729      C1739   1.267       .  A
O1730      C1738   1.270       .  A
O1731      C1740   1.284       .  A
O1732      C1741   1.274       .  A
O1733      C1740   1.275       .  A
O1734      C1741   1.283       .  A
O1735      C1742   1.283       .  A
O1736      C1742   1.270       .  A
C1737      C1793   1.481       .  S
C1738      C1804   1.483       .  S
C1739      C1818   1.473       .  S
C1740      C1762   1.483       .  S
C1741      C1761   1.474       .  S
C1742      C1760   1.473       .  S
Zn1743     O1759   1.994   1_554  S
Zn1744     O2073   1.982       .  S
Zn1744     O1751   2.042       .  S
Zn1744     O1755   2.007   1_554  S
Zn1745     O1747   1.980       .  S
Zn1745     O1750   2.060       .  S
Zn1745     O1756   2.019   1_554  S
Zn1746     O1747   1.989   1_556  S
Zn1746     O1754   2.063       .  S
O1748     Zn2721   2.040       .  S
O1748      C1760   1.275       .  A
O1749      C1761   1.276       .  A
O1750      C1762   1.278       .  A
O1751      C1760   1.275       .  A
O1752      C1762   1.276       .  A
O1753     Zn2723   2.044       .  S
O1753      C1761   1.277       .  A
O1754      C1763   1.279       .  A
O1755      C1764   1.270       .  A
O1756      C1763   1.272       .  A
O1757     Zn2072   2.082   1_565  S
O1757      C1764   1.281       .  A
O1758      C1765   1.279       .  A
O1759      C1765   1.269       .  A
Zn1766     O1771   2.045       .  S
Zn1766     O1775   2.021       .  S
Zn1767     O2422   1.985       .  S
Zn1767     O1772   2.025       .  S
Zn1767     O2752   2.047       .  S
Zn1768     O1770   1.982       .  S
Zn1769     O2748   1.987   1_565  S
Zn1769     O1777   2.031       .  S
Zn1769     O1780   2.054       .  S
Zn1769     O2759   2.056       .  S
O1771      C1783   1.276       .  A
O1772      C1784   1.272       .  A
O1773      C1785   1.283       .  A
O1774      C1783   1.276       .  A
O1775      C1785   1.273       .  A
O1776     Zn2420   2.095       .  S
O1776      C1784   1.284       .  A
O1777      C1786   1.274       .  A
O1778      C1787   1.276       .  A
O1779     Zn2746   2.094   1_565  S
O1779      C1786   1.284       .  A
O1780      C1787   1.277       .  A
O1781      C1788   1.278       .  A
O1782      C1788   1.276       .  A
C1789      C1790   1.399       .  A
C1789      C1794   1.407       .  A
C1789      H1796   1.082       .  S
C1790      C1791   1.405       .  A
C1791      N1798   1.428       .  S
C1792      C2769   1.401       .  A
C1792      C1793   1.407       .  A
C1792      H1797   1.084       .  S
C1793      C2772   1.412       .  A
C1794      N1795   1.433       .  S
N1795      H1799   1.045       .  S
N1795      H1800   1.046       .  S
N1798      H1801   1.046       .  S
H1802      N2776   1.045       .  S
C1803      C1804   1.411       .  A
C1803      H1810   1.084       .  S
C1805      C1806   1.395       .  A
C1805      N1812   1.433       .  S
C1806      C1807   1.399       .  A
C1806      H1811   1.083       .  S
C1807      C1808   1.408       .  A
C1808      N1809   1.437       .  S
N1809      H1813   1.045       .  S
N1809      H1814   1.045   1_565  S
N1812      H1816   1.045       .  S
C1817      C1818   1.408       .  A
C1817      C1822   1.406       .  A
C1817      H1824   1.084       .  S
C1818      C1819   1.406       .  A
C1819      C1820   1.395       .  A
C1819      N1826   1.433       .  S
C1820      C1821   1.403       .  A
C1820      H1825   1.082       .  S
C1821      C1822   1.408       .  A
C1822      N1823   1.438       .  S
N1823      H1827   1.046       .  S
N1823      H1828   1.042       .  S
N1826      H1829   1.046       .  S
N1826      H1830   1.046       .  S
C1831      C1836   1.404   1_545  A
C1831      H1838   1.084       .  S
C1833      C1834   1.396       .  A
C1834      C1835   1.407       .  A
C1834      H1839   1.075       .  S
C1835      C1836   1.406       .  A
C1836      N1837   1.431   1_565  S
N1837      H1841   1.046       .  S
N1837      H1842   1.045       .  S
N1840      H1843   1.046       .  S
N1840      H1844   1.046       .  S
C1845      C1850   1.394       .  A
C1846      C2823   1.403       .  A
C1846      C2825   1.416       .  A
C1847      C1848   1.402       .  A
C1848      C1849   1.395       .  A
C1848      H1853   1.084       .  S
C1849      C1850   1.412       .  A
C1850      N1851   1.436       .  S
N1851      H1855   1.044       .  S
N1851      H1856   1.045       .  S
H1852      C2823   1.084       .  S
N1854      C2825   1.433       .  S
N1854      H1857   1.045       .  S
N1854      H2836   1.046       .  S
C1859      C1860   1.400       .  A
C1859      C1864   1.411       .  A
C1859      H1866   1.084       .  S
C1860      C1861   1.401       .  A
C1861      C1862   1.394       .  A
C1861      N1868   1.429       .  S
C1862      C1863   1.404       .  A
C1862      H1867   1.084       .  S
C1863      C1864   1.421       .  A
C1864      N1865   1.438       .  S
N1865      H1869   1.045       .  S
N1865      H1870   1.046       .  S
N1868      H1871   1.044       .  S
N1868      H1872   1.046       .  S
C1873      C1874   1.410       .  A
C1873      C1878   1.392       .  A
C1873      H1880   1.075       .  S
C1874      C1875   1.407       .  A
C1875      C1876   1.401       .  A
C1875      N1882   1.430       .  S
C1876      C2855   1.405       .  A
C1876      H2859   1.085       .  S
C1878      C2855   1.400       .  A
C1878      N2857   1.433       .  S
N1879      H1884   1.043       .  S
N1882      H1885   1.046       .  S
N1882      H1886   1.045       .  S
H1883      N2857   1.044       .  S
C1887      C1888   1.398       .  A
C1887      C1892   1.399       .  A
C1887      H1894   1.084       .  S
C1888      C1889   1.405       .  A
C1889      C1890   1.397       .  A
C1889      N1896   1.431       .  S
C1892      N1893   1.433       .  S
N1893      H1897   1.046       .  S
N1896      H1899   1.045       .  S
N1896      H1900   1.046       .  S
C1901      C1902   1.395       .  A
C1901      C1906   1.399       .  A
C1901      H1908   1.084       .  S
C1902      C1903   1.410       .  A
C1903      C1904   1.399       .  A
C1903      N1910   1.431       .  S
C1904      C1905   1.395       .  A
C1904      H1909   1.084       .  S
C1905      C1906   1.409       .  A
C1906      N1907   1.431       .  S
N1907      H1911   1.045       .  S
N1907      H1912   1.046       .  S
N1910      H1913   1.045       .  S
N1910      H1914   1.046       .  S
C1915      C1916   1.400       .  A
C1915      C1920   1.391       .  A
C1915      H1922   1.081       .  S
C1916      C1917   1.410       .  A
C1917      C1918   1.403       .  A
C1917      N1924   1.437       .  S
C1918      C2897   1.411       .  A
C1918      H2901   1.084       .  S
C1920      C2897   1.409       .  A
C1920      N2899   1.433       .  S
N1921      H1926   1.046       .  S
N1924      H1927   1.044       .  S
N1924      H1928   1.045       .  S
H1925      N2899   1.045       .  S
C1929      C1934   1.404       .  A
C1931      C1932   1.394       .  A
C1932      C1933   1.398       .  A
C1932      H1937   1.081       .  S
C1933      C1934   1.402       .  A
C1934      N1935   1.431       .  S
N1935      H1939   1.046       .  S
N1935      H1940   1.045       .  S
N1938      H1941   1.046   1_545  S
C1943      C1944   1.415       .  A
C1943      C1948   1.405       .  A
C1943      H1950   1.083       .  S
C1944      C1945   1.419       .  A
C1945      C1946   1.390       .  A
C1945      N1952   1.433       .  S
C1946      C1947   1.397       .  A
C1946      H1951   1.079       .  S
C1947      C1948   1.399       .  A
C1948      N1949   1.432       .  S
N1949      H1953   1.045       .  S
N1949      H1954   1.045       .  S
N1952      H1955   1.044       .  S
N1952      H1956   1.046       .  S
Zn1957     O1961   1.965       .  S
Zn1957     O1962   2.002       .  S
Zn1957     O1966   1.984       .  S
Zn1957     O1973   2.011       .  S
Zn1958     O1961   1.958       .  S
Zn1958     O1963   2.006       .  S
Zn1958     O1965   1.984       .  S
Zn1958     O1969   2.024       .  S
Zn1959     O1961   1.956       .  S
Zn1959     O1964   1.990       .  S
Zn1959     O1967   1.981       .  S
Zn1959     O1970   2.013       .  S
Zn1960     O1961   1.959       .  S
Zn1960     O1968   2.093       .  S
Zn1960     O1971   2.085       .  S
Zn1960     O1972   2.082       .  S
O1962      C1974   1.269       .  A
O1963      C1975   1.270       .  A
O1964      C1976   1.269       .  A
O1965      C1974   1.269       .  A
O1966      C1976   1.268       .  A
O1967      C1975   1.269       .  A
O1968      C1977   1.283       .  A
O1969      C1978   1.275       .  A
O1970      C1977   1.272       .  A
O1971      C1978   1.283       .  A
O1972      C1979   1.283       .  A
O1973      C1979   1.273       .  A
C1974      C2245   1.483       .  S
C1975      C2256   1.482       .  S
C1976      C2270   1.484       .  S
C1977      C2113   1.479       .  S
C1978      C2114   1.479       .  S
C1979      C2109   1.474       .  S
C1980      H1981   1.112       .  S
C1980      C1986   1.530       .  S
C1980      C1985   1.536       .  S
C1980      C1984   1.535       .  S
C1982      H1983   1.114       .  S
C1982      C1988   1.527       .  S
C1982      C1987   1.529       .  S
C1982      C1989   1.520       .  S
C1984      C1987   1.374       .  D
C1984      C2200   1.484       .  S
C1985      C1988   1.371       .  D
C1985      C2214   1.469       .  S
C1986      C1989   1.361       .  D
C1986      C2228   1.462       .  S
C1987      C2242   1.468       .  S
C1988      C2259   1.476       .  S
C1989      C2273   1.467       .  S
Zn1990     O1994   1.916       .  S
Zn1990     O1995   2.052       .  S
Zn1990     O1999   2.063       .  S
Zn1990     O2006   2.067       .  S
Zn1991     O1994   1.869       .  S
Zn1991     O1996   1.931       .  S
Zn1991     O1998   1.950       .  S
Zn1991     O2002   1.948       .  S
Zn1992     O1994   1.922       .  S
Zn1992     O1997   2.055       .  S
Zn1992     O2000   2.056       .  S
Zn1992     O2003   2.032       .  S
Zn1993     O1994   1.932       .  S
Zn1993     O2001   2.065       .  S
Zn1993     O2004   2.077       .  S
Zn1993     O2005   2.064       .  S
O1995      C2007   1.277       .  A
O1996      C2008   1.260       .  A
O1997      C2009   1.281       .  A
O1998      C2007   1.263       .  A
O1999      C2009   1.282       .  A
O2000      C2008   1.276       .  A
O2001      C2010   1.284       .  A
O2002      C2011   1.258       .  A
O2003      C2010   1.279       .  A
O2004      C2011   1.276       .  A
O2005      C2012   1.282       .  A
O2006      C2012   1.282       .  A
C2007      C2231   1.456       .  S
C2008      C2203   1.461       .  S
C2009      C2089   1.479       .  S
C2010      C2091   1.469       .  S
C2011      C2217   1.464       .  S
C2012      C2090   1.483       .  S
Zn2013     O2017   1.956       .  S
Zn2013     O2018   2.010       .  S
Zn2013     O2022   1.983       .  S
Zn2013     O2029   1.980       .  S
Zn2014     O2017   1.943       .  S
Zn2014     O2019   2.094       .  S
Zn2014     O2021   2.095       .  S
Zn2014     O2025   2.100       .  S
Zn2015     O2017   1.968       .  S
Zn2015     O2020   2.002       .  S
Zn2015     O2023   2.035       .  S
Zn2015     O2026   2.008       .  S
Zn2016     O2017   1.944       .  S
Zn2016     O2024   1.969       .  S
Zn2016     O2027   1.997       .  S
Zn2016     O2028   1.974       .  S
O2018      C2030   1.273       .  A
O2019      C2031   1.286       .  A
O2020      C2032   1.273       .  A
O2021      C2030   1.287       .  A
O2022      C2032   1.267       .  A
O2023      C2031   1.277       .  A
O2024      C2033   1.269       .  A
O2025      C2034   1.286       .  A
O2026      C2033   1.269       .  A
O2027      C2034   1.271       .  A
O2028      C2035   1.267       .  A
O2029      C2035   1.267       .  A
C2030      C2110   1.485       .  S
C2031      C2112   1.492       .  S
C2032      C2172   1.486       .  S
C2033      C2189   1.483       .  S
C2034      C2111   1.485       .  S
C2035      C2158   1.471   1_545  S
C2036      H2037   1.113       .  S
C2036      C2042   1.531       .  S
C2036      C2041   1.534       .  S
C2036      C2040   1.535       .  S
C2038      H2039   1.113       .  S
C2038      C2044   1.528       .  S
C2038      C2043   1.526       .  S
C2038      C2045   1.530       .  S
C2040      C2043   1.369       .  D
C2040      C2175   1.470       .  S
C2041      C2044   1.372       .  D
C2041      C2161   1.479       .  S
C2042      C2045   1.366       .  D
C2042      C2186   1.472       .  S
C2043      C2116   1.480       .  S
C2044      C2133   1.467       .  S
C2045      C2147   1.470       .  S
Zn2046     O2050   1.950       .  S
Zn2046     O2051   1.976       .  S
Zn2046     O2055   1.958       .  S
Zn2046     O2062   1.992       .  S
Zn2047     O2050   1.955       .  S
Zn2047     O2052   1.998       .  S
Zn2047     O2054   1.992       .  S
Zn2047     O2058   2.011       .  S
Zn2048     O2050   1.966       .  S
Zn2048     O2053   2.000       .  S
Zn2048     O2056   2.004       .  S
Zn2048     O2059   2.039       .  S
Zn2049     O2050   1.957       .  S
Zn2049     O2057   2.083       .  S
Zn2049     O2060   2.077       .  S
Zn2049     O2061   2.084       .  S
O2051      C2063   1.266       .  A
O2052      C2064   1.270       .  A
O2053      C2065   1.271       .  A
O2054      C2063   1.269       .  A
O2055      C2065   1.266       .  A
O2056      C2064   1.271       .  A
O2057      C2066   1.283       .  A
O2058      C2067   1.274       .  A
O2059      C2066   1.277       .  A
O2060      C2067   1.283       .  A
O2061      C2068   1.282       .  A
O2062      C2068   1.269       .  A
C2063      C2119   1.479       .  S
C2064      C2130   1.490       .  S
C2065      C2144   1.468       .  S
C2066      C2088   1.482       .  S
C2067      C2087   1.472       .  S
C2068      C2086   1.472       .  S
Zn2069     O2399   1.977       .  S
Zn2069     O2404   2.048       .  S
Zn2069     O2085   2.000   1_554  S
Zn2070     O2401   2.038       .  S
Zn2070     O2077   2.045       .  S
Zn2070     O2081   2.018   1_554  S
Zn2071     O2073   1.981   1_545  S
Zn2071     O2076   2.061       .  S
Zn2071     O2082   2.033   1_554  S
Zn2072     O2073   1.990   1_546  S
Zn2072     O2080   2.071       .  S
Zn2072     O2736   2.068   1_545  S
O2073     Zn2721   1.980       .  S
O2074      C2086   1.276       .  A
O2075     Zn2722   2.034   1_545  S
O2075      C2087   1.274       .  A
O2076      C2088   1.278       .  A
O2077      C2086   1.276       .  A
O2078     Zn2721   2.048   1_545  S
O2078      C2088   1.276       .  A
O2079      C2087   1.277       .  A
O2080      C2089   1.280       .  A
O2081      C2090   1.271       .  A
O2082      C2089   1.274       .  A
O2083      C2090   1.281       .  A
O2084     Zn2398   2.066       .  S
O2084      C2091   1.280       .  A
O2085      C2091   1.270       .  A
Zn2092     O2748   1.989       .  S
Zn2092     O2097   2.043       .  S
Zn2092     O2101   2.014       .  S
Zn2092     O2760   2.031   1_545  S
Zn2093     O2098   2.006       .  S
Zn2093     O2756   2.038   1_545  S
Zn2094     O2096   1.983       .  S
Zn2094     O2425   2.086       .  S
Zn2095     O2103   2.033       .  S
Zn2095     O2106   2.059       .  S
O2096     Zn2418   1.990       .  S
O2097      C2109   1.276       .  A
O2098      C2110   1.270       .  A
O2099     Zn2746   2.083       .  S
O2099      C2111   1.284       .  A
O2100      C2109   1.275       .  A
O2101      C2111   1.271       .  A
O2102      C2110   1.283       .  A
O2103      C2112   1.274       .  A
O2104     Zn2419   2.048       .  S
O2104      C2113   1.277       .  A
O2105      C2112   1.283       .  A
O2106      C2113   1.278       .  A
O2107      C2114   1.277       .  A
O2108     Zn2418   2.050       .  S
O2108      C2114   1.276       .  A
C2115      C2116   1.401       .  A
C2115      C2120   1.409       .  A
C2115      H2122   1.083       .  S
C2116      C2117   1.409       .  A
C2117      N2124   1.429       .  S
C2118      C2119   1.402   1_455  A
C2118      H2123   1.084       .  S
C2120      N2121   1.432       .  S
N2121      H2125   1.046       .  S
N2121      H2126   1.046       .  S
N2124      H2127   1.046       .  S
C2129      C2130   1.411       .  A
C2129      C2786   1.403   1_545  A
C2129      H2136   1.083       .  S
C2130      C2783   1.415       .  A
C2131      C2456   1.412       .  A
C2131      C2132   1.397       .  A
C2131      N2138   1.433       .  S
C2132      C2133   1.400       .  A
C2132      H2137   1.085       .  S
C2133      C2134   1.410       .  A
C2134      C2455   1.403       .  A
C2134      N2135   1.438       .  S
N2135      H2139   1.044       .  S
N2135      H2140   1.046       .  S
N2138      H2467   1.046       .  S
N2138      H2142   1.046       .  S
H2141      N2790   1.047       .  S
C2143      C2144   1.408       .  A
C2143      C2148   1.406       .  A
C2143      H2150   1.083       .  S
C2144      C2145   1.405       .  A
C2145      C2146   1.392       .  A
C2145      N2152   1.433       .  S
C2146      C2147   1.401       .  A
C2146      H2151   1.080       .  S
C2147      C2148   1.407       .  A
C2148      N2149   1.438       .  S
N2149      H2153   1.045       .  S
N2149      H2154   1.046       .  S
N2152      H2155   1.046       .  S
N2152      H2156   1.046       .  S
C2157      C2484   1.410       .  A
C2157      C2162   1.404       .  A
C2157      H2164   1.084       .  S
C2158      C2809   1.407   1_565  A
C2158      C2811   1.408       .  A
C2159      C2484   1.405       .  A
C2159      C2160   1.395       .  A
C2159      N2492   1.433       .  S
C2160      C2161   1.405       .  A
C2160      H2165   1.079       .  S
C2161      C2162   1.404       .  A
C2162      N2163   1.431       .  S
N2163      H2167   1.045       .  S
N2163      H2168   1.045       .  S
N2166      C2811   1.439       .  S
N2166      H2169   1.045       .  S
N2166      H2170   1.046       .  S
C2171      C2176   1.394       .  A
C2173      C2174   1.405       .  A
C2174      C2175   1.397       .  A
C2174      H2179   1.084       .  S
C2175      C2176   1.411       .  A
C2176      N2177   1.434       .  S
N2177      H2181   1.048       .  S
N2177      H2182   1.040       .  S
N2180      H2183   1.046       .  S
C2185      C2186   1.400       .  A
C2185      C2190   1.409       .  A
C2185      H2192   1.084       .  S
C2186      C2187   1.400       .  A
C2187      C2188   1.392       .  A
C2187      N2194   1.428       .  S
C2188      C2189   1.403       .  A
C2188      H2193   1.084       .  S
C2189      C2190   1.420       .  A
C2190      N2191   1.438       .  S
N2191      H2195   1.046       .  S
N2191      H2196   1.046       .  S
N2194      H2197   1.045       .  S
N2194      H2198   1.045       .  S
C2199      C2200   1.408       .  A
C2199      C2204   1.397       .  A
C2199      H2206   1.077       .  S
C2200      C2201   1.406       .  A
C2201      C2202   1.400   1_655  A
C2201      N2208   1.431   1_655  S
N2205      H2210   1.043       .  S
N2208      H2211   1.046       .  S
N2208      H2212   1.045       .  S
C2213      C2214   1.400       .  A
C2213      C2218   1.403       .  A
C2213      H2220   1.084       .  S
C2214      C2215   1.407       .  A
C2215      C2216   1.400       .  A
C2215      N2222   1.429       .  S
C2216      C2869   1.398   1_545  A
C2216      H2873   1.084       .  S
C2217      C2542   1.398       .  A
C2217      C2544   1.408       .  A
C2218      C2869   1.408   1_545  A
C2218      N2219   1.432   1_545  S
N2219      H2223   1.046   1_565  S
N2219      H2876   1.046       .  S
H2221      C2542   1.084       .  S
N2222      H2225   1.042       .  S
N2222      H2226   1.048       .  S
H2224      N2545   1.046       .  S
C2227      C2228   1.395       .  A
C2227      C2232   1.399       .  A
C2227      H2234   1.083       .  S
C2228      C2229   1.406       .  A
C2229      C2230   1.398       .  A
C2229      N2236   1.431       .  S
C2230      C2231   1.396       .  A
C2230      H2235   1.084       .  S
C2231      C2232   1.408       .  A
C2232      N2233   1.432       .  S
N2233      H2237   1.043       .  S
N2233      H2238   1.048       .  S
N2236      H2239   1.045       .  S
N2236      H2240   1.046       .  S
C2241      C2242   1.397       .  A
C2241      C2246   1.393       .  A
C2241      H2248   1.083       .  S
C2242      C2243   1.410       .  A
C2243      C2244   1.404   1_655  A
C2243      N2250   1.437       .  S
N2247      H2252   1.046       .  S
N2250      H2253   1.046       .  S
N2250      H2254   1.044   1_655  S
C2255      C2908   1.411       .  A
C2255      C2260   1.406       .  A
C2255      H2914   1.084   1_545  S
C2256      C2581   1.412       .  A
C2256      C2583   1.410       .  A
C2257      C2908   1.411       .  A
C2257      C2258   1.396       .  A
C2257      N2916   1.439       .  S
C2258      C2259   1.400       .  A
C2258      H2263   1.078       .  S
C2259      C2260   1.404       .  A
C2260      N2261   1.431       .  S
N2261      H2265   1.045   1_545  S
N2261      H2266   1.046       .  S
H2262      C2581   1.084       .  S
N2264      C2583   1.434       .  S
N2264      H2267   1.046       .  S
N2264      H2594   1.046       .  S
H2268      N2916   1.051       .  S
C2269      C2270   1.413       .  A
C2269      C2274   1.403       .  A
C2269      H2276   1.083       .  S
C2270      C2271   1.419       .  A
C2271      C2272   1.390       .  A
C2271      N2278   1.433       .  S
C2272      C2273   1.396       .  A
C2272      H2277   1.080       .  S
C2273      C2274   1.399       .  A
C2274      N2275   1.431       .  S
N2275      H2279   1.045       .  S
N2275      H2280   1.046       .  S
N2278      H2281   1.044       .  S
N2278      H2282   1.047       .  S
Zn2283     O2287   1.952       .  S
Zn2283     O2288   1.989       .  S
Zn2283     O2292   1.977       .  S
Zn2283     O2299   1.997       .  S
Zn2284     O2287   1.951       .  S
Zn2284     O2289   2.019       .  S
Zn2284     O2291   1.984       .  S
Zn2284     O2295   2.022       .  S
Zn2285     O2287   1.944       .  S
Zn2285     O2290   1.988       .  S
Zn2285     O2293   1.980       .  S
Zn2285     O2296   2.008       .  S
Zn2286     O2287   1.951       .  S
Zn2286     O2294   2.092       .  S
Zn2286     O2297   2.091       .  S
Zn2286     O2298   2.083       .  S
O2288      C2300   1.268       .  A
O2289      C2301   1.272       .  A
O2290      C2302   1.268       .  A
O2291      C2300   1.270       .  A
O2292      C2302   1.267       .  A
O2293      C2301   1.269       .  A
O2294      C2303   1.284       .  A
O2295      C2304   1.275       .  A
O2296      C2303   1.272       .  A
O2297      C2304   1.285       .  A
O2298      C2305   1.283       .  A
O2299      C2305   1.271       .  A
C2300      C2571   1.481       .  S
C2301      C2582   1.488       .  S
C2302      C2596   1.482       .  S
C2303      C2439   1.477       .  S
C2304      C2440   1.480       .  S
C2305      C2435   1.471       .  S
C2306      H2307   1.112       .  S
C2306      C2312   1.525       .  S
C2306      C2311   1.534       .  S
C2306      C2310   1.534       .  S
C2308      H2309   1.113       .  S
C2308      C2314   1.529       .  S
C2308      C2313   1.531       .  S
C2308      C2315   1.521       .  S
C2310      C2313   1.379       .  D
C2310      C2526   1.486       .  S
C2311      C2314   1.372       .  D
C2311      C2540   1.469       .  S
C2312      C2315   1.356       .  D
C2312      C2554   1.458       .  S
C2313      C2568   1.470       .  S
C2314      C2585   1.477       .  S
C2315      C2599   1.461       .  S
Zn2316     O2320   1.899       .  S
Zn2316     O2321   2.038       .  S
Zn2316     O2325   2.048       .  S
Zn2316     O2332   2.073       .  S
Zn2317     O2320   1.850       .  S
Zn2317     O2322   1.929       .  S
Zn2317     O2324   1.948       .  S
Zn2317     O2328   1.944       .  S
Zn2318     O2320   1.915       .  S
Zn2318     O2323   2.044       .  S
Zn2318     O2326   2.061       .  S
Zn2318     O2329   2.034       .  S
Zn2319     O2320   1.918       .  S
Zn2319     O2327   2.041       .  S
Zn2319     O2330   2.062       .  S
Zn2319     O2331   2.046       .  S
O2321      C2333   1.276       .  A
O2322      C2334   1.260       .  A
O2323      C2335   1.281       .  A
O2324      C2333   1.263       .  A
O2325      C2335   1.281       .  A
O2326      C2334   1.276       .  A
O2327      C2336   1.282       .  A
O2328      C2337   1.258       .  A
O2329      C2336   1.281       .  A
O2330      C2337   1.274       .  A
O2331      C2338   1.280       .  A
O2332      C2338   1.283       .  A
C2333      C2557   1.452       .  S
C2334      C2529   1.466       .  S
C2335      C2415   1.470       .  S
C2336      C2417   1.462       .  S
C2337      C2543   1.461       .  S
C2338      C2416   1.480       .  S
Zn2339     O2343   1.966       .  S
Zn2339     O2344   2.021       .  S
Zn2339     O2348   1.984       .  S
Zn2339     O2355   1.988       .  S
Zn2340     O2343   1.951       .  S
Zn2340     O2345   2.093       .  S
Zn2340     O2347   2.099       .  S
Zn2340     O2351   2.099       .  S
Zn2341     O2343   1.974       .  S
Zn2341     O2346   1.989       .  S
Zn2341     O2349   2.041       .  S
Zn2341     O2352   2.013       .  S
Zn2342     O2343   1.952       .  S
Zn2342     O2350   1.979       .  S
Zn2342     O2353   2.023       .  S
Zn2342     O2354   1.988       .  S
O2344      C2356   1.274       .  A
O2345      C2357   1.286       .  A
O2346      C2358   1.272       .  A
O2347      C2356   1.286       .  A
O2348      C2358   1.268       .  A
O2349      C2357   1.277       .  A
O2350      C2359   1.269       .  A
O2351      C2360   1.286       .  A
O2352      C2359   1.270       .  A
O2353      C2360   1.275       .  A
O2354      C2361   1.268       .  A
O2355      C2361   1.268       .  A
C2356      C2436   1.490       .  S
C2357      C2438   1.493       .  S
C2358      C2498   1.483       .  S
C2359      C2515   1.483       .  S
C2360      C2437   1.491       .  S
C2361      C2484   1.474       .  S
C2362      H2363   1.113       .  S
C2362      C2368   1.532       .  S
C2362      C2367   1.534       .  S
C2362      C2366   1.528       .  S
C2364      H2365   1.113       .  S
C2364      C2370   1.529       .  S
C2364      C2369   1.523       .  S
C2364      C2371   1.534       .  S
C2366      C2369   1.360       .  D
C2366      C2501   1.465       .  S
C2367      C2370   1.373       .  D
C2367      C2487   1.476       .  S
C2368      C2371   1.371       .  D
C2368      C2512   1.473       .  S
C2369      C2442   1.465       .  S
C2370      C2459   1.468       .  S
C2371      C2473   1.476       .  S
Zn2372     O2376   1.955       .  S
Zn2372     O2377   1.987       .  S
Zn2372     O2381   1.967       .  S
Zn2372     O2388   2.001       .  S
Zn2373     O2376   1.959       .  S
Zn2373     O2378   1.995       .  S
Zn2373     O2380   1.986       .  S
Zn2373     O2384   2.002       .  S
Zn2374     O2376   1.961       .  S
Zn2374     O2379   2.009       .  S
Zn2374     O2382   2.000       .  S
Zn2374     O2385   2.037       .  S
Zn2375     O2376   1.963       .  S
Zn2375     O2383   2.086       .  S
Zn2375     O2386   2.088       .  S
Zn2375     O2387   2.094       .  S
O2377      C2389   1.267       .  A
O2378      C2390   1.269       .  A
O2379      C2391   1.271       .  A
O2380      C2389   1.269       .  A
O2381      C2391   1.267       .  A
O2382      C2390   1.271       .  A
O2383      C2392   1.284       .  A
O2384      C2393   1.272       .  A
O2385      C2392   1.277       .  A
O2386      C2393   1.284       .  A
O2387      C2394   1.283       .  A
O2388      C2394   1.271       .  A
C2389      C2445   1.477       .  S
C2390      C2456   1.486       .  S
C2391      C2470   1.477       .  S
C2392      C2414   1.482       .  S
C2393      C2413   1.472       .  S
C2394      C2412   1.476       .  S
Zn2395     O2725   1.975       .  S
Zn2395     O2730   2.059       .  S
Zn2395     O2411   1.987   1_554  S
Zn2396     O2727   2.051       .  S
Zn2396     O2403   2.053       .  S
Zn2396     O2407   2.017   1_554  S
Zn2397     O2399   1.979       .  S
Zn2397     O2402   2.058       .  S
Zn2397     O2408   2.016   1_554  S
Zn2398     O2399   1.986   1_556  S
Zn2398     O2406   2.059       .  S
O2400      C2412   1.275       .  A
O2401      C2413   1.275       .  A
O2402      C2414   1.277       .  A
O2403      C2412   1.277       .  A
O2404      C2414   1.275       .  A
O2405      C2413   1.276       .  A
O2406      C2415   1.278       .  A
O2407      C2416   1.271       .  A
O2408      C2415   1.272       .  A
O2409      C2416   1.282       .  A
O2410     Zn2724   2.059       .  S
O2410      C2417   1.279       .  A
O2411      C2417   1.268       .  A
Zn2418     O2423   2.044       .  S
Zn2418     O2427   2.030       .  S
Zn2419     O2424   2.023       .  S
Zn2420     O2422   1.981       .  S
Zn2420     O2751   2.079       .  S
Zn2421     O2429   2.031       .  S
Zn2421     O2432   2.057       .  S
O2422     Zn2744   1.986       .  S
O2423      C2435   1.276       .  A
O2424      C2436   1.272       .  A
O2425      C2437   1.283       .  A
O2426      C2435   1.275       .  A
O2427      C2437   1.273       .  A
O2428      C2436   1.284       .  A
O2429      C2438   1.274       .  A
O2430     Zn2745   2.040       .  S
O2430      C2439   1.276       .  A
O2431      C2438   1.283       .  A
O2432      C2439   1.278       .  A
O2433      C2440   1.278       .  A
O2434     Zn2744   2.043       .  S
O2434      C2440   1.275       .  A
C2441      C2442   1.398       .  A
C2441      C2446   1.405       .  A
C2441      H2448   1.083       .  S
C2442      C2443   1.400       .  A
C2443      N2450   1.429       .  S
C2444      C2445   1.400   1_455  A
C2444      H2449   1.084       .  S
C2446      N2447   1.433       .  S
N2447      H2451   1.045       .  S
N2447      H2452   1.046       .  S
N2450      H2453   1.045       .  S
C2455      C2456   1.412       .  A
C2455      H2462   1.083       .  S
C2457      C2782   1.411       .  A
C2457      C2458   1.395       .  A
C2457      N2464   1.433       .  S
C2458      C2459   1.400       .  A
C2458      H2463   1.082       .  S
C2459      C2460   1.409       .  A
C2460      C2781   1.403       .  A
C2460      N2461   1.438       .  S
N2461      H2465   1.046       .  S
N2461      H2466   1.043       .  S
N2464      H2793   1.046       .  S
N2464      H2468   1.045       .  S
C2469      C2470   1.410       .  A
C2469      C2474   1.409       .  A
C2469      H2476   1.083       .  S
C2470      C2471   1.408       .  A
C2471      C2472   1.392       .  A
C2471      N2478   1.433       .  S
C2472      C2473   1.401       .  A
C2472      H2477   1.081       .  S
C2473      C2474   1.408       .  A
C2474      N2475   1.438       .  S
N2475      H2479   1.042       .  S
N2475      H2480   1.046       .  S
N2478      H2481   1.046       .  S
N2478      H2482   1.046       .  S
C2483      C2810   1.410       .  A
C2483      C2488   1.403       .  A
C2483      H2490   1.084       .  S
C2485      C2810   1.403       .  A
C2485      C2486   1.393       .  A
C2485      N2818   1.433       .  S
C2486      C2487   1.405       .  A
C2486      H2491   1.081       .  S
C2487      C2488   1.404       .  A
C2488      N2489   1.431       .  S
N2489      H2493   1.045       .  S
N2489      H2494   1.045       .  S
N2492      H2495   1.046       .  S
N2492      H2496   1.046       .  S
C2497      C2502   1.392       .  A
C2499      C2500   1.402       .  A
C2500      C2501   1.395       .  A
C2500      H2505   1.084       .  S
C2501      C2502   1.410       .  A
C2502      N2503   1.434       .  S
N2503      H2507   1.041       .  S
N2503      H2508   1.048       .  S
N2506      H2509   1.046       .  S
C2511      C2512   1.400       .  A
C2511      C2516   1.411       .  A
C2511      H2518   1.084       .  S
C2512      C2513   1.403       .  A
C2513      C2514   1.393       .  A
C2513      N2520   1.429       .  S
C2514      C2515   1.402       .  A
C2514      H2519   1.084       .  S
C2515      C2516   1.421       .  A
C2516      N2517   1.438       .  S
N2517      H2521   1.046       .  S
N2517      H2522   1.045       .  S
N2520      H2523   1.045       .  S
N2520      H2524   1.045       .  S
C2525      C2526   1.411       .  A
C2525      C2530   1.395       .  A
C2525      H2532   1.078       .  S
C2526      C2527   1.407       .  A
C2527      C2528   1.400   1_655  A
C2527      N2534   1.430   1_655  S
N2531      H2536   1.046       .  S
N2534      H2537   1.046       .  S
N2534      H2538   1.045       .  S
C2539      C2540   1.400       .  A
C2539      C2544   1.404       .  A
C2539      H2546   1.084       .  S
C2540      C2541   1.407       .  A
C2541      C2542   1.399       .  A
C2541      N2548   1.429       .  S
C2543      C2868   1.397       .  A
C2543      C2870   1.408       .  A
C2544      N2545   1.432       .  S
N2545      H2549   1.046       .  S
H2547      C2868   1.084       .  S
N2548      H2551   1.044       .  S
N2548      H2552   1.046       .  S
H2550      N2871   1.046       .  S
C2553      C2554   1.394       .  A
C2553      C2558   1.397       .  A
C2553      H2560   1.083       .  S
C2554      C2555   1.406       .  A
C2555      C2556   1.396       .  A
C2555      N2562   1.431       .  S
C2556      C2557   1.395       .  A
C2556      H2561   1.084       .  S
C2557      C2558   1.408       .  A
C2558      N2559   1.432       .  S
N2559      H2563   1.044       .  S
N2559      H2564   1.047       .  S
N2562      H2565   1.045       .  S
N2562      H2566   1.046       .  S
C2567      C2568   1.398       .  A
C2567      C2572   1.395       .  A
C2567      H2574   1.082       .  S
C2568      C2569   1.410       .  A
C2569      C2570   1.404   1_655  A
C2569      N2576   1.438       .  S
N2573      H2578   1.046       .  S
N2576      H2579   1.044       .  S
N2576      H2580   1.046   1_655  S
C2581      C2586   1.408       .  A
C2582      C2907   1.412       .  A
C2582      C2909   1.413       .  A
C2583      C2584   1.393       .  A
C2584      C2585   1.400       .  A
C2584      H2589   1.077       .  S
C2585      C2586   1.404       .  A
C2586      N2587   1.431       .  S
N2587      H2591   1.046       .  S
N2587      H2592   1.045       .  S
H2588      C2907   1.083       .  S
N2590      C2909   1.433       .  S
N2590      H2593   1.045       .  S
N2590      H2920   1.047       .  S
C2595      C2596   1.412       .  A
C2595      C2600   1.401       .  A
C2595      H2602   1.083       .  S
C2596      C2597   1.422       .  A
C2597      C2598   1.389       .  A
C2597      N2604   1.433       .  S
C2598      C2599   1.395       .  A
C2598      H2603   1.082       .  S
C2599      C2600   1.398       .  A
C2600      N2601   1.431       .  S
N2601      H2605   1.045       .  S
N2601      H2606   1.046       .  S
N2604      H2607   1.045       .  S
N2604      H2608   1.046       .  S
Zn2609     O2613   1.960       .  S
Zn2609     O2614   1.992       .  S
Zn2609     O2618   1.981       .  S
Zn2609     O2625   2.010       .  S
Zn2610     O2613   1.959       .  S
Zn2610     O2615   2.006       .  S
Zn2610     O2617   1.978       .  S
Zn2610     O2621   2.006       .  S
Zn2611     O2613   1.952       .  S
Zn2611     O2616   1.987       .  S
Zn2611     O2619   1.977       .  S
Zn2611     O2622   2.006       .  S
Zn2612     O2613   1.957       .  S
Zn2612     O2620   2.088       .  S
Zn2612     O2623   2.085       .  S
Zn2612     O2624   2.086       .  S
O2614      C2626   1.269       .  A
O2615      C2627   1.269       .  A
O2616      C2628   1.268       .  A
O2617      C2626   1.268       .  A
O2618      C2628   1.267       .  A
O2619      C2627   1.268       .  A
O2620      C2629   1.283       .  A
O2621      C2630   1.272       .  A
O2622      C2629   1.272       .  A
O2623      C2630   1.284       .  A
O2624      C2631   1.283       .  A
O2625      C2631   1.272       .  A
C2626      C2897   1.478       .  S
C2627      C2908   1.480   1_565  S
C2628      C2922   1.480       .  S
C2629      C2765   1.475       .  S
C2630      C2766   1.474       .  S
C2631      C2761   1.476       .  S
C2632      H2633   1.112       .  S
C2632      C2638   1.529       .  S
C2632      C2637   1.536       .  S
C2632      C2636   1.535       .  S
C2634      H2635   1.114       .  S
C2634      C2640   1.528       .  S
C2634      C2639   1.528       .  S
C2634      C2641   1.522       .  S
C2636      C2639   1.375       .  D
C2636      C2852   1.485       .  S
C2637      C2640   1.370       .  D
C2637      C2866   1.467       .  S
C2638      C2641   1.364       .  D
C2638      C2880   1.463       .  S
C2639      C2894   1.467       .  S
C2640      C2911   1.479       .  S
C2641      C2925   1.467       .  S
Zn2642     O2646   1.911       .  S
Zn2642     O2647   2.044       .  S
Zn2642     O2651   2.052       .  S
Zn2642     O2658   2.065       .  S
Zn2643     O2646   1.861       .  S
Zn2643     O2648   1.927       .  S
Zn2643     O2650   1.950       .  S
Zn2643     O2654   1.948       .  S
Zn2644     O2646   1.915       .  S
Zn2644     O2649   2.046       .  S
Zn2644     O2652   2.056       .  S
Zn2644     O2655   2.037       .  S
Zn2645     O2646   1.926       .  S
Zn2645     O2653   2.060       .  S
Zn2645     O2656   2.076       .  S
Zn2645     O2657   2.048       .  S
O2647      C2659   1.276       .  A
O2648      C2660   1.259       .  A
O2649      C2661   1.280       .  A
O2650      C2659   1.263       .  A
O2651      C2661   1.281       .  A
O2652      C2660   1.276       .  A
O2653      C2662   1.284       .  A
O2654      C2663   1.258       .  A
O2655      C2662   1.281       .  A
O2656      C2663   1.275       .  A
O2657      C2664   1.280       .  A
O2658      C2664   1.282       .  A
C2659      C2883   1.457       .  S
C2660      C2855   1.460       .  S
C2661      C2741   1.472       .  S
C2662      C2743   1.470       .  S
C2663      C2869   1.465       .  S
C2664      C2742   1.476       .  S
Zn2665     O2669   1.961       .  S
Zn2665     O2670   2.022       .  S
Zn2665     O2674   1.982       .  S
Zn2665     O2681   1.987       .  S
Zn2666     O2669   1.950       .  S
Zn2666     O2671   2.090       .  S
Zn2666     O2673   2.102       .  S
Zn2666     O2677   2.089       .  S
Zn2667     O2669   1.969       .  S
Zn2667     O2672   1.983       .  S
Zn2667     O2675   2.034       .  S
Zn2667     O2678   2.021       .  S
Zn2668     O2669   1.950       .  S
Zn2668     O2676   1.978       .  S
Zn2668     O2679   2.007       .  S
Zn2668     O2680   1.979       .  S
O2670      C2682   1.274       .  A
O2671      C2683   1.285       .  A
O2672      C2684   1.272       .  A
O2673      C2682   1.286       .  A
O2674      C2684   1.268       .  A
O2675      C2683   1.277       .  A
O2676      C2685   1.269       .  A
O2677      C2686   1.286       .  A
O2678      C2685   1.270       .  A
O2679      C2686   1.273       .  A
O2680      C2687   1.267       .  A
O2681      C2687   1.269       .  A
C2682      C2762   1.492       .  S
C2683      C2764   1.491       .  S
C2684      C2824   1.481       .  S
C2685      C2841   1.489       .  S
C2686      C2763   1.482       .  S
C2687      C2810   1.471       .  S
C2688      H2689   1.113       .  S
C2688      C2694   1.533       .  S
C2688      C2693   1.536       .  S
C2688      C2692   1.532       .  S
C2690      H2691   1.112       .  S
C2690      C2696   1.530       .  S
C2690      C2695   1.522       .  S
C2690      C2697   1.535       .  S
C2692      C2695   1.364       .  D
C2692      C2827   1.467       .  S
C2693      C2696   1.372       .  D
C2693      C2813   1.480       .  S
C2694      C2697   1.375       .  D
C2694      C2838   1.479       .  S
C2695      C2768   1.472       .  S
C2696      C2785   1.471       .  S
C2697      C2799   1.479       .  S
Zn2698     O2702   1.954       .  S
Zn2698     O2703   1.985       .  S
Zn2698     O2707   1.961       .  S
Zn2698     O2714   1.986       .  S
Zn2699     O2702   1.957       .  S
Zn2699     O2704   1.991       .  S
Zn2699     O2706   1.998       .  S
Zn2699     O2710   2.011       .  S
Zn2700     O2702   1.962       .  S
Zn2700     O2705   2.005       .  S
Zn2700     O2708   1.989       .  S
Zn2700     O2711   2.038       .  S
Zn2701     O2702   1.959       .  S
Zn2701     O2709   2.097       .  S
Zn2701     O2712   2.086       .  S
Zn2701     O2713   2.082       .  S
O2703      C2715   1.265       .  A
O2704      C2716   1.269       .  A
O2705      C2717   1.270       .  A
O2706      C2715   1.271       .  A
O2707      C2717   1.266       .  A
O2708      C2716   1.270       .  A
O2709      C2718   1.284       .  A
O2710      C2719   1.273       .  A
O2711      C2718   1.276       .  A
O2712      C2719   1.283       .  A
O2713      C2720   1.283       .  A
O2714      C2720   1.270       .  A
C2715      C2771   1.481       .  S
C2716      C2782   1.484       .  S
C2717      C2796   1.471       .  S
C2718      C2740   1.487       .  S
C2719      C2739   1.475       .  S
C2720      C2738   1.467       .  S
Zn2721     O2737   2.005   1_554  S
Zn2722     O2729   2.024       .  S
Zn2722     O2733   2.012   1_554  S
Zn2723     O2725   1.978       .  S
Zn2723     O2728   2.063       .  S
Zn2723     O2734   2.010   1_554  S
Zn2724     O2725   1.990   1_556  S
Zn2724     O2732   2.070       .  S
O2726      C2738   1.275       .  A
O2727      C2739   1.277       .  A
O2728      C2740   1.277       .  A
O2729      C2738   1.274       .  A
O2730      C2740   1.276       .  A
O2731      C2739   1.276       .  A
O2732      C2741   1.281       .  A
O2733      C2742   1.270       .  A
O2734      C2741   1.271       .  A
O2735      C2742   1.280       .  A
O2736      C2743   1.279       .  A
O2737      C2743   1.270       .  A
Zn2744     O2749   2.044       .  S
Zn2744     O2753   2.007       .  S
Zn2745     O2750   2.027       .  S
Zn2746     O2748   1.980       .  S
Zn2747     O2755   2.035       .  S
Zn2747     O2758   2.050       .  S
O2749      C2761   1.276       .  A
O2750      C2762   1.273       .  A
O2751      C2763   1.283       .  A
O2752      C2761   1.276       .  A
O2753      C2763   1.271       .  A
O2754      C2762   1.284       .  A
O2755      C2764   1.274       .  A
O2756      C2765   1.275       .  A
O2757      C2764   1.283       .  A
O2758      C2765   1.277       .  A
O2759      C2766   1.277       .  A
O2760      C2766   1.274       .  A
C2767      C2768   1.399       .  A
C2767      C2772   1.398       .  A
C2767      H2774   1.078       .  S
C2768      C2769   1.404       .  A
C2769      N2776   1.430       .  S
C2770      C2771   1.399   1_455  A
C2770      H2775   1.084       .  S
C2772      N2773   1.432       .  S
N2773      H2777   1.044       .  S
N2773      H2778   1.047       .  S
N2776      H2779   1.046       .  S
C2781      C2782   1.411       .  A
C2781      H2788   1.083       .  S
C2783      C2784   1.399   1_545  A
C2783      N2790   1.432       .  S
C2784      C2785   1.398       .  A
C2784      H2789   1.083       .  S
C2785      C2786   1.408       .  A
C2786      N2787   1.438       .  S
N2787      H2791   1.042       .  S
N2787      H2792   1.048   1_565  S
N2790      H2794   1.044   1_545  S
C2795      C2796   1.408       .  A
C2795      C2800   1.408       .  A
C2795      H2802   1.084       .  S
C2796      C2797   1.404       .  A
C2797      C2798   1.391       .  A
C2797      N2804   1.434       .  S
C2798      C2799   1.402       .  A
C2798      H2803   1.076       .  S
C2799      C2800   1.410       .  A
C2800      N2801   1.436       .  S
N2801      H2805   1.045       .  S
N2801      H2806   1.044       .  S
N2804      H2807   1.046       .  S
N2804      H2808   1.046       .  S
C2809      C2814   1.398   1_545  A
C2809      H2816   1.084       .  S
C2811      C2812   1.399       .  A
C2812      C2813   1.405       .  A
C2812      H2817   1.078       .  S
C2813      C2814   1.405       .  A
C2814      N2815   1.430       .  S
N2815      H2819   1.046   1_565  S
N2815      H2820   1.044       .  S
N2818      H2821   1.046       .  S
N2818      H2822   1.046       .  S
C2823      C2828   1.393       .  A
C2825      C2826   1.400       .  A
C2826      C2827   1.397       .  A
C2826      H2831   1.080       .  S
C2827      C2828   1.409       .  A
C2828      N2829   1.434       .  S
N2829      H2833   1.043       .  S
N2829      H2834   1.044       .  S
N2832      H2835   1.045       .  S
C2837      C2838   1.402       .  A
C2837      C2842   1.413       .  A
C2837      H2844   1.084       .  S
C2838      C2839   1.403       .  A
C2839      C2840   1.394       .  A
C2839      N2846   1.428       .  S
C2840      C2841   1.403       .  A
C2840      H2845   1.084       .  S
C2841      C2842   1.421       .  A
C2842      N2843   1.437       .  S
N2843      H2847   1.044       .  S
N2843      H2848   1.048       .  S
N2846      H2849   1.045       .  S
N2846      H2850   1.045       .  S
C2851      C2852   1.410       .  A
C2851      C2856   1.392       .  A
C2851      H2858   1.075       .  S
C2852      C2853   1.409       .  A
C2853      C2854   1.400   1_655  A
C2853      N2860   1.430   1_655  S
N2857      H2862   1.046       .  S
N2860      H2863   1.046       .  S
N2860      H2864   1.045       .  S
C2865      C2866   1.400       .  A
C2865      C2870   1.402       .  A
C2865      H2872   1.085       .  S
C2866      C2867   1.407       .  A
C2867      C2868   1.397       .  A
C2867      N2874   1.429       .  S
C2870      N2871   1.432       .  S
N2871      H2875   1.046       .  S
N2874      H2877   1.045       .  S
N2874      H2878   1.046       .  S
C2879      C2880   1.395       .  A
C2879      C2884   1.402       .  A
C2879      H2886   1.082       .  S
C2880      C2881   1.407       .  A
C2881      C2882   1.397       .  A
C2881      N2888   1.431       .  S
C2882      C2883   1.395       .  A
C2882      H2887   1.084       .  S
C2883      C2884   1.412       .  A
C2884      N2885   1.438       .  S
N2885      H2889   1.045       .  S
N2885      H2890   1.046       .  S
N2888      H2891   1.045       .  S
N2888      H2892   1.046       .  S
C2893      C2894   1.398       .  A
C2893      C2898   1.393       .  A
C2893      H2900   1.082       .  S
C2894      C2895   1.409       .  A
C2895      C2896   1.404   1_655  A
C2895      N2902   1.438       .  S
N2899      H2904   1.046       .  S
N2902      H2905   1.042       .  S
N2902      H2906   1.047   1_655  S
C2907      C2912   1.411       .  A
C2909      C2910   1.394       .  A
C2910      C2911   1.399       .  A
C2910      H2915   1.081       .  S
C2911      C2912   1.409       .  A
C2912      N2913   1.437       .  S
N2913      H2917   1.049       .  S
N2913      H2918   1.039       .  S
N2916      H2919   1.041       .  S
C2921      C2922   1.413       .  A
C2921      C2926   1.404       .  A
C2921      H2928   1.084       .  S
C2922      C2923   1.416       .  A
C2923      C2924   1.387       .  A
C2923      N2930   1.433       .  S
C2924      C2925   1.398       .  A
C2924      H2929   1.078       .  S
C2925      C2926   1.400       .  A
C2926      N2927   1.431       .  S
N2927      H2931   1.046       .  S
N2927      H2932   1.045       .  S
N2930      H2933   1.044       .  S
N2930      H2934   1.046       .  S
