geometry optimzed in LAMMPS
_audit_creation_date              2020-11-30 
_audit_creation_method            'lammps2cif' 
_symmetry_space_group_name_H-M    'P1' 
_symmetry_Int_Tables_number       1 
_symmetry_cell_setting            triclinic 
loop_ 
_symmetry_equiv_pos_as_xyz 
  x,y,z 
_cell_length_a                    32.44820167 
_cell_length_b                    32.08073384920587 
_cell_length_c                    38.04112959220756 
_cell_angle_alpha                 90.54579261600854 
_cell_angle_beta                  89.5109079815353 
_cell_angle_gamma                 121.27170509667516 
loop_ 
_atom_site_label 
_atom_site_type_symbol 
_atom_site_fract_x 
_atom_site_fract_y 
_atom_site_fract_z 
_atom_site_charge 
O1          O  0.62922240  0.86203688  0.06964233    -0.82500
C2          C  0.65536805  0.76836043  0.18483061     0.96800
O3          O  0.68718994  0.80637740  0.16943694    -0.71700
O4          O  0.68499561  0.78520064  0.10216673    -0.75300
Al5        Al  0.68529828  0.83681867  0.12700252     1.49000
C6          C  0.66847630  0.77203842  0.07147148     0.92100
O7          O  0.55317344  0.72806589  0.09135307    -0.81500
O8          O  0.55856894  0.82760927  0.15342275    -0.75000
Al9        Al  0.59306688  0.79567192  0.08301792     1.90100
O10         O  0.53322624  0.73188770  0.14601065    -0.74100
O11         O  0.63411939  0.84812248  0.19089486    -0.74000
O12         O  0.61141819  0.75233425  0.17968007    -0.79600
O13         O  0.69060651  0.89088637  0.15180155    -0.77800
O14         O  0.62153688  0.80770040  0.12470661    -1.13900
O15         O  0.69948466  0.87448117  0.08510475    -0.73100
C16         C  0.67452201  0.88627370  0.06732237     0.97600
C17         C  0.52583642  0.70845299  0.11748890     0.94000
Al18       Al  0.58716855  0.79126362  0.16422977     1.55600
O19         O  0.63730440  0.78078397  0.05956806    -0.77800
C20         C  0.66995297  0.88835199  0.18067922     0.98100
C21         C  0.53569166  0.82406353  0.12591056     0.93000
O22         O  0.54314957  0.80756774  0.09778094    -0.83100
O23         O  0.13454425  0.75268121  0.07204883    -0.82500
C24         C  0.23274082  0.89098196  0.18010845     0.96800
O25         O  0.19276013  0.87984028  0.16663120    -0.71700
O26         O  0.20405842  0.89127016  0.09863990    -0.75300
Al27       Al  0.15843797  0.83971190  0.12679142     1.49000
C28         C  0.21818012  0.88789162  0.06836069     0.92100
O29         O  0.26847558  0.82351679  0.08772603    -0.81500
O30         O  0.17804018  0.72973534  0.15567843    -0.75000
Al31       Al  0.20083247  0.78971059  0.08245435     1.90100
O32         O  0.26999391  0.80451376  0.14261941    -0.74100
O33         O  0.15997479  0.78755674  0.19258826    -0.74000
O34         O  0.25031278  0.86451063  0.17478488    -0.79600
O35         O  0.10982516  0.79078020  0.15594239    -0.77800
O36         O  0.19081388  0.80891403  0.12402840    -1.13900
O37         O  0.11674003  0.80742851  0.08724221    -0.73100
C38         C  0.10689677  0.76904557  0.07069728     0.97600
C39         C  0.29063449  0.81961959  0.11324093     0.94000
Al40       Al  0.21281350  0.79753570  0.16311475     1.55600
O41         O  0.21108704  0.84720984  0.05710634    -0.77800
C42         C  0.11832856  0.77937372  0.18556611     0.98100
C43         C  0.17937882  0.70742449  0.12868884     0.93000
O44         O  0.19309877  0.72913648  0.09937981    -0.83100
O45         O  0.12136708  0.36037605  0.18135555    -0.82500
C46         C  0.20769573  0.31615573  0.06779321     0.96800
O47         O  0.17013939  0.28813708  0.08497396    -0.71700
O48         O  0.19454224  0.29796842  0.15209513    -0.75300
Al49       Al  0.14373627  0.29714098  0.12715103     1.49000
C50         C  0.20964925  0.31838596  0.18174761     0.92100
O51         O  0.25440640  0.43280262  0.15839990    -0.81500
O52         O  0.16263753  0.42808289  0.09359609    -0.75000
Al53       Al  0.18744027  0.39444724  0.16709184     1.90100
O54         O  0.25409029  0.44574457  0.10194793    -0.74100
O55         O  0.13502381  0.34550718  0.06119482    -0.74000
O56         O  0.22775787  0.36160572  0.07149790    -0.79600
O57         O  0.09110073  0.29251057  0.10232770    -0.77800
O58         O  0.17512006  0.36193756  0.12657938    -1.13900
O59         O  0.10838700  0.28793932  0.16941827    -0.73100
C60         C  0.09722538  0.31491817  0.18583232     0.97600
C61         C  0.27583637  0.45617628  0.13108218     0.94000
Al62       Al  0.19344503  0.39265247  0.08553357     1.55600
O63         O  0.20125203  0.35088773  0.19256791    -0.77800
C64         C  0.09447803  0.31164740  0.07267256     0.98100
C65         C  0.16494993  0.45261396  0.12031751     0.93000
O66         O  0.17737562  0.44457163  0.14970397    -0.83100
O67         O  0.87001587  0.63441687  0.42740169    -0.82500
C68         C  0.78146969  0.67851832  0.31698664     0.96800
O69         O  0.82183868  0.70540190  0.33113587    -0.71700
O70         O  0.80773111  0.70504715  0.39887879    -0.75300
Al71       Al  0.85168600  0.69737198  0.37079035     1.49000
C72         C  0.79073166  0.68583506  0.42843925     0.92100
O73         O  0.73592825  0.56626414  0.40884084    -0.81500
O74         O  0.81887215  0.56057886  0.33989735    -0.75000
Al75       Al  0.80367687  0.60287111  0.41449218     1.90100
O76         O  0.73132814  0.54958534  0.35270134    -0.74100
O77         O  0.84604632  0.64101933  0.30461537    -0.74000
O78         O  0.75903798  0.63303222  0.32157258    -0.79600
O79         O  0.89866836  0.69471891  0.34199703    -0.77800
O80         O  0.81525735  0.63260083  0.37297353    -1.13900
O81         O  0.89091800  0.70716236  0.40995801    -0.73100
C82         C  0.89869980  0.67982891  0.42844031     0.97600
C83         C  0.71202345  0.54159187  0.38266892     0.94000
Al84       Al  0.79084267  0.59888397  0.33319358     1.55600
O85         O  0.79405980  0.65028396  0.43911792    -0.77800
C86         C  0.88871201  0.67432528  0.31206569     0.98100
C87         C  0.81890731  0.53858254  0.36721545     0.93000
O88         O  0.81018445  0.55010066  0.39711538    -0.83100
O89         O  0.84583600  0.23701099  0.32098165    -0.82500
C90         C  0.76847408  0.10980410  0.43641487     0.96800
O91         O  0.80553457  0.11836604  0.41914369    -0.71700
O92         O  0.78243457  0.10101341  0.35270482    -0.75300
Al93       Al  0.83286720  0.15505784  0.37660068     1.49000
C94         C  0.76483722  0.10249936  0.32370129     0.92100
O95         O  0.71620658  0.16607099  0.35202349    -0.81500
O96         O  0.82105485  0.27000441  0.40827924    -0.75000
Al97       Al  0.78221626  0.20059223  0.33856299     1.90100
O98         O  0.72720827  0.19400820  0.40611444    -0.74100
O99         O  0.84601194  0.21557869  0.44267710    -0.74000
O100        O  0.75272411  0.13817836  0.43469373    -0.79600
O101        O  0.88674356  0.20599826  0.40041041    -0.77800
O102        O  0.80098644  0.18633197  0.37817149    -1.13900
O103        O  0.86716724  0.18440945  0.33380857    -0.73100
C104        C  0.87423205  0.22158609  0.31726216     0.97600
C105        C  0.69984853  0.17313743  0.38018103     0.94000
Al106      Al  0.78789350  0.20309820  0.41951939     1.55600
O107        O  0.76899143  0.14193735  0.31321554    -0.77800
C108        C  0.88517630  0.22154886  0.43061949     0.98100
C109        C  0.81208067  0.28798401  0.38222716     0.93000
O110        O  0.79159308  0.26207458  0.35524549    -0.83100
O111        O  0.36609431  0.13974767  0.31544515    -0.82500
C112        C  0.33768256  0.22307947  0.43790284     0.96800
O113        O  0.30598310  0.18618343  0.42118365    -0.71700
O114        O  0.30440070  0.20816841  0.35508393    -0.75300
Al115      Al  0.30758292  0.15711165  0.37744506     1.49000
C116        C  0.32051449  0.22385755  0.32466710     0.92100
O117        O  0.43568655  0.27166803  0.34370215    -0.81500
O118        O  0.43738465  0.16846514  0.39654149    -0.75000
Al119      Al  0.39922285  0.20489432  0.33185044     1.90100
O120        O  0.45948016  0.26405416  0.39581145    -0.74100
O121        O  0.36220316  0.14359906  0.43790990    -0.74000
O122        O  0.38175551  0.23856524  0.43308495    -0.79600
O123        O  0.30397502  0.10280859  0.39989993    -0.77800
O124        O  0.37144273  0.18825217  0.37402765    -1.13900
O125        O  0.29454593  0.12096274  0.33433159    -0.73100
C126        C  0.32092191  0.11260651  0.31451099     0.97600
C127        C  0.46402053  0.28985910  0.36938655     0.94000
Al128      Al  0.40722184  0.20247365  0.41264325     1.55600
O129        O  0.35311227  0.21805135  0.31144408    -0.77800
C130        C  0.32535686  0.10413416  0.42779193     0.98100
C131        C  0.45927950  0.17542733  0.36761851     0.93000
O132        O  0.45120441  0.19555991  0.34247528    -0.83100
C133        C  0.64904088  0.15971459  0.38274541    -0.06000
C134        C  0.62753464  0.15400591  0.41597503    -0.05900
C135        C  0.58266997  0.14977940  0.41928853    -0.24100
C136        C  0.55908957  0.15231020  0.38945781     0.18100
C137        C  0.57920500  0.15538171  0.35573426     0.15400
C138        C  0.62362926  0.15801240  0.35253683    -0.19100
C139        C  0.55616967  0.15908785  0.32599316    -0.20900
C140        C  0.51560266  0.16323660  0.32981606    -0.13500
C141        C  0.49682353  0.16277854  0.36337781     0.03200
C142        C  0.51751378  0.15508569  0.39299819    -0.25600
H143        H  0.64626856  0.15453992  0.43956961     0.08300
H144        H  0.56762449  0.14704367  0.44530273     0.11900
H145        H  0.64002694  0.16248886  0.32681212     0.11800
H146        H  0.57084433  0.16116396  0.29993210     0.11500
H147        H  0.49987787  0.16848862  0.30653018     0.12100
H148        H  0.50334478  0.15466432  0.41899566     0.14000
C149        C  0.50450466  0.34101041  0.36748387    -0.06000
C150        C  0.51836413  0.36473659  0.33482936    -0.05900
C151        C  0.55999221  0.41073043  0.33177019    -0.24100
C152        C  0.58837853  0.43400947  0.36136250     0.18100
C153        C  0.57347705  0.41170096  0.39467326     0.15400
C154        C  0.53166582  0.36527970  0.39753080    -0.19100
C155        C  0.60168195  0.43542673  0.42430540    -0.20900
C156        C  0.64551465  0.47951405  0.42067862    -0.13500
C157        C  0.66196967  0.50047251  0.38734800     0.03200
C158        C  0.63241894  0.47820225  0.35792281    -0.25600
H159        H  0.49803028  0.34691447  0.31128581     0.08300
H160        H  0.57069983  0.42746581  0.30608293     0.11900
H161        H  0.52107159  0.34752893  0.42290170     0.11800
H162        H  0.59066184  0.41909650  0.45009472     0.08500
H163        H  0.66766566  0.49591635  0.44374834     0.12100
H164        H  0.64458943  0.49420524  0.33211364     0.14000
C165        C  0.82277219  0.33878327  0.38440851    -0.06000
C166        C  0.82960738  0.36153719  0.41742948    -0.05900
C167        C  0.83340219  0.40682502  0.42049860    -0.24100
C168        C  0.83083571  0.43047086  0.39056948     0.18100
C169        C  0.82663023  0.40922961  0.35703818     0.15400
C170        C  0.82249218  0.36347437  0.35415524    -0.19100
C171        C  0.82487497  0.43331958  0.32707905    -0.20900
C172        C  0.82483203  0.47672377  0.33040183    -0.13500
C173        C  0.82633963  0.49683162  0.36375872     0.03200
C174        C  0.83062393  0.47404300  0.39373284    -0.25600
H175        H  0.83003161  0.34338699  0.44116490     0.08300
H176        H  0.83701974  0.42271247  0.44639317     0.11900
H177        H  0.81770321  0.34652002  0.32852254     0.11800
H178        H  0.82211356  0.41787357  0.30112893     0.11500
H179        H  0.82166004  0.49350347  0.30682903     0.12100
H180        H  0.83217787  0.48927697  0.41959496     0.14000
C181        C  0.92900945  0.24496123  0.45250549    -0.06000
C182        C  0.97485355  0.26941022  0.43667176    -0.05900
C183        C  0.01648074  0.28911062  0.45716616    -0.24100
C184        C  0.01293237  0.28363984  0.99379805     0.18100
C185        C  0.96692106  0.25896543  0.50996182     0.15400
C186        C  0.92530147  0.24055746  0.48927762    -0.19100
C187        C  0.96330131  0.25211197  0.04645017    -0.20900
C188        C  0.00480556  0.26902404  0.06671463    -0.13500
C189        C  0.05074789  0.29390861  0.05098172     0.03200
C190        C  0.05453634  0.30154351  0.01445431    -0.25600
H191        H  0.97845562  0.27319306  0.40836417     0.08300
H192        H  0.05141264  0.30779019  0.44430795     0.11900
H193        H  0.89002123  0.22115683  0.50164657     0.11800
H194        H  0.92834775  0.23313867  0.05927032     0.11500
H195        H  0.00097602  0.26296052  0.09482421     0.12100
H196        H  0.08976933  0.32038043  0.00200221     0.14000
C197        C  0.05678118  0.29231254  0.21108796    -0.06000
C198        C  0.04136242  0.24543060  0.22389784    -0.05900
C199        C  0.00328250  0.22292182  0.24773277    -0.24100
C200        C  0.97943503  0.24659977  0.25890125     0.18100
C201        C  0.99434523  0.29367746  0.24613977     0.15400
C202        C  0.03335871  0.31653973  0.22254510    -0.19100
C203        C  0.96962340  0.31673903  0.25698188    -0.20900
C204        C  0.93040407  0.29325198  0.28005040    -0.13500
C205        C  0.91565795  0.24659313  0.29297601     0.03200
C206        C  0.94061251  0.22364144  0.28239417    -0.25600
H207        H  0.05909742  0.22616394  0.21567980     0.08300
H208        H  0.99229459  0.18685085  0.25724715     0.11900
H209        H  0.04489837  0.35260214  0.21268802     0.11800
H210        H  0.98039890  0.35274393  0.24746430     0.11500
H211        H  0.91177422  0.31173666  0.28795077     0.12100
H212        H  0.92938668  0.18753447  0.29201156     0.14000
C213        C  0.23659509  0.30344276  0.20423142    -0.06000
C214        C  0.26698241  0.28932616  0.18880683    -0.05900
C215        C  0.29175098  0.27388632  0.20964398    -0.24100
C216        C  0.28554701  0.27103601  0.24624657     0.18100
C217        C  0.25500157  0.28509787  0.26210689     0.15400
C218        C  0.23135188  0.30206152  0.24102811    -0.19100
C219        C  0.24774017  0.28072671  0.29863824    -0.20900
C220        C  0.26959105  0.26152994  0.31912333    -0.13500
C221        C  0.29980978  0.24718983  0.30355041     0.03200
C222        C  0.30828018  0.25297254  0.26707951    -0.25600
H223        H  0.27172677  0.29046634  0.16053530     0.08300
H224        H  0.31499793  0.26321779  0.19705647     0.11900
H225        H  0.20761584  0.31253542  0.25307198     0.11800
H226        H  0.22437009  0.29119720  0.31127133     0.11500
H227        H  0.26253769  0.25754516  0.34714466     0.12100
H228        H  0.33119675  0.24174105  0.25464293     0.14000
C229        C  0.22593337  0.29456563  0.04234722    -0.06000
C230        C  0.19296880  0.24965668  0.02659731    -0.05900
C231        C  0.20856716  0.22744680  0.00285359    -0.24100
C232        C  0.25760324  0.24937503  0.49477880     0.18100
C233        C  0.29137427  0.29450263  0.01047513     0.15400
C234        C  0.27521460  0.31728201  0.03392655    -0.19100
C235        C  0.34057366  0.31560075  0.50257617    -0.20900
C236        C  0.35597122  0.29226523  0.47927472    -0.13500
C237        C  0.32236819  0.24768187  0.46330210     0.03200
C238        C  0.27321808  0.22655829  0.47130988    -0.25600
H239        H  0.15478806  0.23176680  0.03248795     0.08300
H240        H  0.18227338  0.19290496  0.99100094     0.11900
H241        H  0.30082703  0.35182015  0.04614756     0.11800
H242        H  0.36708728  0.35003543  0.51441911     0.11500
H243        H  0.39409480  0.30932044  0.47350151     0.12100
H244        H  0.24688901  0.19207683  0.45936564     0.14000
C245        C  0.30608122  0.05923342  0.44904899    -0.06000
C246        C  0.28231124  0.01322227  0.43254714    -0.05900
C247        C  0.26215977  0.97043233  0.45237462    -0.24100
C248        C  0.26431430  0.97274254  0.48920284     0.18100
C249        C  0.28770617  0.01889022  0.00608374     0.15400
C250        C  0.30916364  0.06179470  0.48592180    -0.19100
C251        C  0.28839323  0.02132865  0.04287342    -0.20900
C252        C  0.26587696  0.97863243  0.06274891    -0.13500
C253        C  0.24291283  0.93245022  0.04637173     0.03200
C254        C  0.24271384  0.92979291  0.00943557    -0.25600
H255        H  0.27946987  0.01038161  0.40416662     0.08300
H256        H  0.24422482  0.93550814  0.43890171     0.11900
H257        H  0.32679271  0.09709526  0.49891965     0.11800
H258        H  0.30584867  0.05628313  0.05631278     0.11500
H259        H  0.26665678  0.98177654  0.09114836     0.12100
H260        H  0.22464584  0.89445936  0.99650020     0.14000
C261        C  0.29845829  0.07179844  0.28926023    -0.06000
C262        C  0.25108919  0.05408503  0.27794977    -0.05900
C263        C  0.22967332  0.01635609  0.25333686    -0.24100
C264        C  0.25501527  0.99517066  0.24005499     0.18100
C265        C  0.30257143  0.01232199  0.25150280     0.15400
C266        C  0.32423593  0.05095869  0.27579074    -0.19100
C267        C  0.32732936  0.99017465  0.23869154    -0.20900
C268        C  0.30491305  0.95102724  0.21507369    -0.13500
C269        C  0.25765866  0.93388655  0.20355211     0.03200
C270        C  0.23317134  0.95657886  0.21591988    -0.25600
H271        H  0.23078582  0.06995245  0.28778272     0.08300
H272        H  0.19317522  0.00354892  0.24485344     0.11900
H273        H  0.36076063  0.06432936  0.28455371     0.11800
H274        H  0.36374243  0.00272283  0.24724310     0.11500
H275        H  0.32447325  0.93402613  0.20593774     0.12100
H276        H  0.19655475  0.94340764  0.20748939     0.14000
C277        C  0.08023291  0.75820833  0.21292312    -0.06000
C278        C  0.09210005  0.75483112  0.24785316    -0.05900
C279        C  0.05705717  0.73762498  0.27433042    -0.24100
C280        C  0.00932502  0.72296942  0.26634788     0.18100
C281        C  0.99667937  0.72484904  0.23113405     0.15400
C282        C  0.03221115  0.74276226  0.20473468    -0.19100
C283        C  0.94871771  0.70903288  0.22294757    -0.20900
C284        C  0.91368518  0.69179054  0.24938461    -0.13500
C285        C  0.92611884  0.69095775  0.28454929     0.03200
C286        C  0.97406918  0.70666878  0.29294686    -0.25600
H287        H  0.12881388  0.76644569  0.25491013     0.08300
H288        H  0.06737708  0.73610173  0.30108554     0.11900
H289        H  0.02249211  0.74482337  0.17788462     0.11800
H290        H  0.93830581  0.71006055  0.19612765     0.11500
H291        H  0.87688445  0.68005458  0.24245504     0.12100
H292        H  0.98372596  0.70571042  0.32001878     0.14000
C293        C  0.06433509  0.74443600  0.04793147    -0.06000
C294        C  0.03646983  0.69331119  0.04622132    -0.05900
C295        C  0.99805771  0.66993438  0.52263761    -0.24100
C296        C  0.98795606  0.69745155  0.49970075     0.18100
C297        C  0.01655270  0.74900557  0.00103077     0.15400
C298        C  0.05392524  0.77212456  0.02554385    -0.19100
C299        C  0.00777323  0.77669947  0.97752338    -0.20900
C300        C  0.97043536  0.75372455  0.45332627    -0.13500
C301        C  0.94069794  0.70253637  0.45228622     0.03200
C302        C  0.94994807  0.67447199  0.47544063    -0.25600
H303        H  0.04449016  0.67151794  0.06318959     0.08300
H304        H  0.97677943  0.63044334  0.52196866     0.11900
H305        H  0.07611520  0.81161614  0.02632456     0.11800
H306        H  0.02965062  0.81617882  0.97793968     0.11500
H307        H  0.96431566  0.77635879  0.43578859     0.12100
H308        H  0.92740537  0.63503531  0.47486665     0.14000
C309        C  0.15661454  0.49361610  0.11630230    -0.06000
C310        C  0.15442607  0.50983379  0.08248621    -0.05900
C311        C  0.15508102  0.55336880  0.07800752    -0.24100
C312        C  0.15772610  0.58149827  0.10725851     0.18100
C313        C  0.15686223  0.56399848  0.14141918     0.15400
C314        C  0.15625974  0.52022554  0.14574200    -0.19100
C315        C  0.15871830  0.59163384  0.17070933    -0.20900
C316        C  0.16382724  0.63721909  0.16627157    -0.13500
C317        C  0.16750258  0.65636349  0.13244908     0.03200
C318        C  0.16312534  0.62761373  0.10294966    -0.25600
H319        H  0.15449738  0.49004332  0.05928613     0.08300
H320        H  0.15517656  0.56583543  0.05161730     0.11900
H321        H  0.15759334  0.50802789  0.17196024     0.11800
H322        H  0.15765378  0.57865572  0.19709286     0.11500
H323        H  0.16678306  0.65833080  0.18952355     0.12100
H324        H  0.16541042  0.64167355  0.07674510     0.14000
C325        C  0.74087357  0.05786957  0.30161862    -0.06000
C326        C  0.71843665  0.01170356  0.31747638    -0.05900
C327        C  0.69840296  0.96921643  0.29700240    -0.24100
C328        C  0.70146308  0.97209325  0.26023196     0.18100
C329        C  0.72437249  0.01837554  0.24398981     0.15400
C330        C  0.74313340  0.06091248  0.26475065    -0.19100
C331        C  0.72909264  0.02133937  0.20728700    -0.20900
C332        C  0.71166436  0.97900438  0.18689909    -0.13500
C333        C  0.68820536  0.93279248  0.20270059     0.03200
C334        C  0.68282241  0.92957897  0.23946666    -0.25600
H335        H  0.71645758  0.00850169  0.34584923     0.08300
H336        H  0.68127222  0.93414765  0.30995562     0.11900
H337        H  0.76112619  0.09638196  0.25230578     0.11800
H338        H  0.74676612  0.05644000  0.19435859     0.11500
H339        H  0.71606468  0.98235734  0.15861189     0.12100
H340        H  0.66524438  0.89413000  0.25192930     0.14000
C341        C  0.74370684  0.06698301  0.45941782    -0.06000
C342        C  0.69574833  0.04915470  0.46983185    -0.05900
C343        C  0.67230838  0.00958263  0.99253380    -0.24100
C344        C  0.69670645  0.98766461  0.00560103     0.18100
C345        C  0.74500629  0.00538455  0.49528350     0.15400
C346        C  0.76800988  0.04454941  0.47190261    -0.19100
C347        C  0.76968243  0.98406704  0.50892241    -0.20900
C348        C  0.74680583  0.94569842  0.03270556    -0.13500
C349        C  0.69870547  0.92761992  0.04289543     0.03200
C350        C  0.67374569  0.94863655  0.02907047    -0.25600
H351        H  0.67627975  0.06582228  0.46033827     0.08300
H352        H  0.63531661  0.99648689  0.00016459     0.11900
H353        H  0.80512644  0.05834586  0.46417186     0.11800
H354        H  0.80670662  0.99721555  0.50135725     0.11500
H355        H  0.76663337  0.92976087  0.04282874     0.12100
H356        H  0.63668775  0.93502260  0.03687382     0.14000
C357        C  0.76672119  0.70534337  0.45070635    -0.06000
C358        C  0.75642908  0.73947956  0.43688869    -0.05900
C359        C  0.73332166  0.75775793  0.45738929    -0.24100
C360        C  0.72049366  0.74270952  0.49228845     0.18100
C361        C  0.73106339  0.70880995  0.00665938     0.15400
C362        C  0.75362366  0.68996912  0.48569644    -0.19100
C363        C  0.71955836  0.69494592  0.04193873    -0.20900
C364        C  0.69867977  0.71518393  0.06293822    -0.13500
C365        C  0.68769870  0.74850325  0.04876144     0.03200
C366        C  0.69810612  0.76167698  0.01325498    -0.25600
H367        H  0.76595440  0.75189159  0.41002419     0.08300
H368        H  0.72577783  0.78392443  0.44600134     0.11900
H369        H  0.76152515  0.66388024  0.49677409     0.11800
H370        H  0.72750398  0.66914491  0.05345696     0.11500
H371        H  0.69102219  0.70479625  0.09031537     0.12100
H372        H  0.69043842  0.78805491  0.00237272     0.14000
C373        C  0.67013249  0.74382551  0.20976279    -0.06000
C374        C  0.63821176  0.69535774  0.21999296    -0.05900
C375        C  0.65308652  0.67245652  0.24344927    -0.24100
C376        C  0.69988888  0.69796792  0.25727319     0.18100
C377        C  0.73162458  0.74713222  0.24758671     0.15400
C378        C  0.71671267  0.76950458  0.22381468    -0.19100
C379        C  0.77799763  0.77328864  0.26165320    -0.20900
C380        C  0.79332211  0.75077980  0.28467906    -0.13500
C381        C  0.76272796  0.70153845  0.29394533     0.03200
C382        C  0.71574368  0.67528081  0.28035138    -0.25600
H383        H  0.60199925  0.67500579  0.20949420     0.08300
H384        H  0.62812314  0.63487075  0.25066672     0.11900
H385        H  0.74136233  0.80715762  0.21645881     0.11800
H386        H  0.80258721  0.81105881  0.25463228     0.11500
H387        H  0.82972255  0.77194499  0.29475481     0.12100
H388        H  0.69181376  0.63743685  0.28751800     0.14000
C389        C  0.49723705  0.83573788  0.12769173    -0.06000
C390        C  0.48338865  0.84532705  0.16049638    -0.05900
C391        C  0.44198786  0.84798669  0.16370727    -0.24100
C392        C  0.41373355  0.84124362  0.13415983     0.18100
C393        C  0.42882645  0.83459364  0.10068071     0.15400
C394        C  0.47060738  0.83203504  0.09762469    -0.19100
C395        C  0.40062435  0.82835515  0.07110900    -0.20900
C396        C  0.35667330  0.82618193  0.07495510    -0.13500
C397        C  0.34018577  0.82992750  0.10843315     0.03200
C398        C  0.36958123  0.83886743  0.13781222    -0.25600
H399        H  0.50332910  0.84857106  0.18408586     0.08300
H400        H  0.43115811  0.85357347  0.18950071     0.11900
H401        H  0.48105214  0.82493091  0.07216306     0.11800
H402        H  0.41174856  0.82352810  0.04520839     0.11500
H403        H  0.33452015  0.81923465  0.05194729     0.12100
H404        H  0.35730107  0.84224909  0.16369800     0.14000
C405        C  0.32605110  0.49811188  0.13381818    -0.06000
C406        C  0.34737652  0.51485232  0.16704427    -0.05900
C407        C  0.39198363  0.55812675  0.17040609    -0.24100
C408        C  0.41630309  0.58546953  0.14060101     0.18100
C409        C  0.39639051  0.56783305  0.10692584     0.15400
C410        C  0.35146040  0.52432579  0.10373402    -0.19100
C411        C  0.42106024  0.59483562  0.07707654    -0.20900
C412        C  0.46417899  0.63963462  0.08059160    -0.13500
C413        C  0.48325507  0.65853607  0.11402786     0.03200
C414        C  0.45944538  0.63078058  0.14396418    -0.25600
H415        H  0.32877255  0.49540529  0.19068484     0.08300
H416        H  0.40686905  0.57082526  0.19641235     0.11900
H417        H  0.33564467  0.51177513  0.07793401     0.11800
H418        H  0.40649529  0.58181883  0.05103767     0.11500
H419        H  0.48172609  0.66034982  0.05711653     0.12100
H420        H  0.47398626  0.64484108  0.16986804     0.14000
O421        O  0.62922282  0.86203689  0.56964221    -0.82500
C422        C  0.65536826  0.76836142  0.68483094     0.96800
O423        O  0.68719013  0.80637862  0.66943747    -0.71700
O424        O  0.68499615  0.78520128  0.60216749    -0.75300
Al425      Al  0.68529856  0.83681938  0.62700274     1.49000
C426        C  0.66847704  0.77203879  0.57147223     0.92100
O427        O  0.55317389  0.72806639  0.59135311    -0.81500
O428        O  0.55856941  0.82760986  0.65342259    -0.75000
Al429      Al  0.59306734  0.79567221  0.58301794     1.90100
O430        O  0.53322636  0.73188821  0.64601058    -0.74100
O431        O  0.63411958  0.84812307  0.69089476    -0.74000
O432        O  0.61141839  0.75233483  0.67968005    -0.79600
O433        O  0.69060633  0.89088713  0.65180124    -0.77800
O434        O  0.62153717  0.80770086  0.62470665    -1.13900
O435        O  0.69948509  0.87448134  0.58510468    -0.73100
C436        C  0.67452237  0.88627352  0.56732206     0.97600
C437        C  0.52583661  0.70845360  0.61748880     0.94000
Al438      Al  0.58716876  0.79126415  0.66422973     1.55600
O439        O  0.63730500  0.78078400  0.55956852    -0.77800
C440        C  0.66995286  0.88835269  0.68067894     0.98100
C441        C  0.53569226  0.82406425  0.62591037     0.93000
O442        O  0.54315007  0.80756833  0.59778075    -0.83100
O443        O  0.13454467  0.75268157  0.57204859    -0.82500
C444        C  0.23274132  0.89098237  0.68010819     0.96800
O445        O  0.19276045  0.87984034  0.66663114    -0.71700
O446        O  0.20405874  0.89127042  0.59863987    -0.75300
Al447      Al  0.15843852  0.83971207  0.62679131     1.49000
C448        C  0.21818029  0.88789205  0.56836055     0.92100
O449        O  0.26847625  0.82351716  0.58772543    -0.81500
O450        O  0.17804184  0.72973605  0.65567815    -0.75000
Al451      Al  0.20083304  0.78971097  0.58245397     1.90100
O452        O  0.26999504  0.80451488  0.64261893    -0.74100
O453        O  0.15997578  0.78755692  0.69258800    -0.74000
O454        O  0.25031357  0.86451134  0.67478447    -0.79600
O455        O  0.10982592  0.79078010  0.65594218    -0.77800
O456        O  0.19081464  0.80891440  0.62402810    -1.13900
O457        O  0.11674069  0.80742899  0.58724214    -0.73100
C458        C  0.10689731  0.76904610  0.57069716     0.97600
C459        C  0.29063545  0.81962052  0.61324040     0.94000
Al460      Al  0.21281461  0.79753636  0.66311438     1.55600
O461        O  0.21108751  0.84721040  0.55710612    -0.77800
C462        C  0.11832944  0.77937362  0.68556586     0.98100
C463        C  0.17938034  0.70742511  0.62868857     0.93000
O464        O  0.19309947  0.72913679  0.59937938    -0.83100
O465        O  0.12136896  0.36037709  0.68135616    -0.82500
C466        C  0.20769667  0.31615618  0.56779346     0.96800
O467        O  0.17014088  0.28813732  0.58497470    -0.71700
O468        O  0.19454395  0.29796927  0.65209575    -0.75300
Al469      Al  0.14373757  0.29714117  0.62715167     1.49000
C470        C  0.20965109  0.31838705  0.68174813     0.92100
O471        O  0.25440776  0.43280258  0.65839915    -0.81500
O472        O  0.16263652  0.42808193  0.59359643    -0.75000
Al473      Al  0.18744188  0.39444790  0.66709186     1.90100
O474        O  0.25409015  0.44574510  0.60194741    -0.74100
O475        O  0.13502347  0.34550623  0.56119522    -0.74000
O476        O  0.22775812  0.36160617  0.57149765    -0.79600
O477        O  0.09110145  0.29250963  0.60232832    -0.77800
O478        O  0.17512086  0.36193768  0.62657959    -1.13900
O479        O  0.10838852  0.28794012  0.66941899    -0.73100
C480        C  0.09722724  0.31491922  0.68583311     0.97600
C481        C  0.27583701  0.45617653  0.63108135     0.94000
Al482      Al  0.19344479  0.39265226  0.58553358     1.55600
O483        O  0.20125378  0.35088879  0.69256824    -0.77800
C484        C  0.09447804  0.31164597  0.57267310     0.98100
C485        C  0.16495021  0.45261378  0.62031773     0.93000
O486        O  0.17737731  0.44457226  0.64970389    -0.83100
O487        O  0.87001544  0.63441642  0.92740120    -0.82500
C488        C  0.78147045  0.67851914  0.81698604     0.96800
O489        O  0.82183950  0.70540257  0.83113526    -0.71700
O490        O  0.80773146  0.70504748  0.89887816    -0.75300
Al491      Al  0.85168642  0.69737222  0.87078983     1.49000
C492        C  0.79073166  0.68583522  0.92843852     0.92100
O493        O  0.73592805  0.56626449  0.90883948    -0.81500
O494        O  0.81887250  0.56057941  0.83989624    -0.75000
Al495      Al  0.80367653  0.60287104  0.91449122     1.90100
O496        O  0.73132828  0.54958557  0.85270004    -0.74100
O497        O  0.84604695  0.64102020  0.80461463    -0.74000
O498        O  0.75903859  0.63303301  0.82157185    -0.79600
O499        O  0.89866892  0.69471913  0.84199665    -0.77800
O500        O  0.81525754  0.63260110  0.87297272    -1.13900
O501        O  0.89091788  0.70716205  0.90995767    -0.73100
C502        C  0.89869929  0.67982847  0.92844015     0.97600
C503        C  0.71202343  0.54159211  0.88266755     0.94000
Al504      Al  0.79084308  0.59888457  0.83319260     1.55600
O505        O  0.79405941  0.65028383  0.93911708    -0.77800
C506        C  0.88871269  0.67432587  0.81206518     0.98100
C507        C  0.81890714  0.53858272  0.86721428     0.93000
O508        O  0.81018398  0.55010058  0.89711422    -0.83100
O509        O  0.84583674  0.23701127  0.82098139    -0.82500
C510        C  0.76847484  0.10980522  0.93641532     0.96800
O511        O  0.80553463  0.11836617  0.91914358    -0.71700
O512        O  0.78243421  0.10101341  0.85270471    -0.75300
Al513      Al  0.83286726  0.15505767  0.87660034     1.49000
C514        C  0.76483742  0.10249961  0.82370100     0.92100
O515        O  0.71620728  0.16607123  0.85202312    -0.81500
O516        O  0.82105598  0.27000534  0.90827818    -0.75000
Al517      Al  0.78221690  0.20059252  0.83856252     1.90100
O518        O  0.72720932  0.19400903  0.90611399    -0.74100
O519        O  0.84601329  0.21558012  0.94267623    -0.74000
O520        O  0.75272531  0.13817984  0.93469404    -0.79600
O521        O  0.88674392  0.20599771  0.90040979    -0.77800
O522        O  0.80098705  0.18633235  0.87817110    -1.13900
O523        O  0.86716735  0.18440912  0.83380810    -0.73100
C524        C  0.87423268  0.22158620  0.81726197     0.97600
C525        C  0.69984944  0.17313794  0.88018068     0.94000
Al526      Al  0.78789465  0.20309931  0.91951888     1.55600
O527        O  0.76899225  0.14193779  0.81321509    -0.77800
C528        C  0.88517724  0.22154927  0.93061862     0.98100
C529        C  0.81208116  0.28798452  0.88222617     0.93000
O530        O  0.79159335  0.26207478  0.85524471    -0.83100
O531        O  0.36609409  0.13974692  0.81544574    -0.82500
C532        C  0.33768229  0.22307844  0.93790365     0.96800
O533        O  0.30598300  0.18618260  0.92118425    -0.71700
O534        O  0.30440105  0.20816841  0.85508458    -0.75300
Al535      Al  0.30758304  0.15711132  0.87744555     1.49000
C536        C  0.32051497  0.22385761  0.82466776     0.92100
O537        O  0.43568660  0.27166749  0.84370214    -0.81500
O538        O  0.43738573  0.16846581  0.89654182    -0.75000
Al539      Al  0.39922279  0.20489372  0.83185076     1.90100
O540        O  0.45947993  0.26405445  0.89581180    -0.74100
O541        O  0.36220386  0.14359850  0.93790999    -0.74000
O542        O  0.38175528  0.23856448  0.93308567    -0.79600
O543        O  0.30397522  0.10280820  0.89990028    -0.77800
O544        O  0.37144290  0.18825183  0.87402808    -1.13900
O545        O  0.29454583  0.12096254  0.83433198    -0.73100
C546        C  0.32092166  0.11260599  0.81451150     0.97600
C547        C  0.46402034  0.28985901  0.86938662     0.94000
Al548      Al  0.40722215  0.20247354  0.91264362     1.55600
O549        O  0.35311222  0.21805072  0.81144457    -0.77800
C550        C  0.32535742  0.10413364  0.92779208     0.98100
C551        C  0.45928026  0.17542773  0.86761873     0.93000
O552        O  0.45120445  0.19555954  0.84247539    -0.83100
C553        C  0.64904186  0.15971515  0.88274520    -0.06000
C554        C  0.62753584  0.15400667  0.91597487    -0.05900
C555        C  0.58267133  0.14978046  0.91928851    -0.24100
C556        C  0.55909086  0.15231130  0.88945784     0.18100
C557        C  0.57920609  0.15538264  0.85573425     0.15400
C558        C  0.62363017  0.15801306  0.85253671    -0.19100
C559        C  0.55617069  0.15908881  0.82599321    -0.20900
C560        C  0.51560368  0.16323753  0.82981619    -0.13500
C561        C  0.49682463  0.16277944  0.86337798     0.03200
C562        C  0.51751512  0.15508685  0.89299833    -0.25600
H563        H  0.64626985  0.15454065  0.93956939     0.08300
H564        H  0.56762600  0.14704487  0.94530275     0.11900
H565        H  0.64002772  0.16248940  0.82681197     0.11800
H566        H  0.57084523  0.16116486  0.79993212     0.11500
H567        H  0.49987876  0.16848944  0.80653034     0.12100
H568        H  0.50334623  0.15466552  0.91899583     0.14000
C569        C  0.50450428  0.34101045  0.86748372    -0.06000
C570        C  0.51836302  0.36473675  0.83482920    -0.05900
C571        C  0.55999106  0.41073063  0.83176966    -0.24100
C572        C  0.58837807  0.43400960  0.86136173     0.18100
C573        C  0.57347723  0.41170102  0.89467259     0.15400
C574        C  0.53166603  0.36527974  0.89753044    -0.19100
C575        C  0.60168269  0.43542671  0.92430451    -0.20900
C576        C  0.64551529  0.47951404  0.92067743    -0.13500
C577        C  0.66196973  0.50047259  0.88734674     0.03200
C578        C  0.63241854  0.47820239  0.85792171    -0.25600
H579        H  0.49802862  0.34691463  0.81128586     0.08300
H580        H  0.57069808  0.42746602  0.80608237     0.11900
H581        H  0.52107238  0.34752897  0.92290136     0.11800
H582        H  0.59066308  0.41909644  0.95009386     0.08500
H583        H  0.66766672  0.49591630  0.94374698     0.12100
H584        H  0.64458861  0.49420544  0.83211251     0.14000
C585        C  0.82277209  0.33878355  0.88440743    -0.06000
C586        C  0.82960672  0.36153727  0.91742841    -0.05900
C587        C  0.83340117  0.40682491  0.92049749    -0.24100
C588        C  0.83083492  0.43047078  0.89056832     0.18100
C589        C  0.82662981  0.40922967  0.85703700     0.15400
C590        C  0.82249205  0.36347456  0.85415410    -0.19100
C591        C  0.82487478  0.43331973  0.82707784    -0.20900
C592        C  0.82483186  0.47672394  0.83040061    -0.13500
C593        C  0.82633923  0.49683169  0.86375751     0.03200
C594        C  0.83062313  0.47404289  0.89373164    -0.25600
H595        H  0.83003084  0.34338707  0.94116386     0.08300
H596        H  0.83701835  0.42271224  0.94639206     0.11900
H597        H  0.81770342  0.34652029  0.82852141     0.11800
H598        H  0.82211362  0.41787384  0.80112771     0.11500
H599        H  0.82166013  0.49350379  0.80682780     0.12100
H600        H  0.83217686  0.48927676  0.91959377     0.14000
C601        C  0.92901058  0.24496149  0.95250437    -0.06000
C602        C  0.97485461  0.26940568  0.93667035    -0.05900
C603        C  0.01648180  0.28910553  0.95716468    -0.24100
C604        C  0.01293140  0.28364065  0.49379920     0.18100
C605        C  0.96692207  0.25896955  0.00996098     0.15400
C606        C  0.92530261  0.24056208  0.98927675    -0.19100
C607        C  0.96330050  0.25210365  0.54645056    -0.20900
C608        C  0.00480502  0.26901658  0.56671487    -0.13500
C609        C  0.05074748  0.29390610  0.55098233     0.03200
C610        C  0.05453559  0.30154499  0.51445537    -0.25600
H611        H  0.97845665  0.27318509  0.90836256     0.08300
H612        H  0.05141363  0.30778125  0.94430626     0.11900
H613        H  0.89002241  0.22116517  0.00164599     0.11800
H614        H  0.92834689  0.23312649  0.55927047     0.11500
H615        H  0.00097550  0.26294975  0.59482409     0.12100
H616        H  0.08976862  0.32038575  0.50200344     0.14000
C617        C  0.05678331  0.29231384  0.71108901    -0.06000
C618        C  0.04136465  0.24543195  0.72389896    -0.05900
C619        C  0.00328461  0.22292305  0.74773379    -0.24100
C620        C  0.97943691  0.24660085  0.75890209     0.18100
C621        C  0.99434720  0.29367861  0.74614071     0.15400
C622        C  0.03336084  0.31654103  0.72254616    -0.19100
C623        C  0.96962516  0.31674000  0.75698272    -0.20900
C624        C  0.93040542  0.29325266  0.78005088    -0.13500
C625        C  0.91565909  0.24659362  0.79297625     0.03200
C626        C  0.94061399  0.22364220  0.78239466    -0.25600
H627        H  0.05909972  0.22616535  0.71568096     0.08300
H628        H  0.99229670  0.18685206  0.75724813     0.11900
H629        H  0.04490047  0.35260344  0.71268907     0.11800
H630        H  0.98040074  0.35274498  0.74746526     0.11500
H631        H  0.91177539  0.31173720  0.78795112     0.12100
H632        H  0.92938808  0.18753515  0.79201192     0.14000
C633        C  0.23659713  0.30344415  0.70423203    -0.06000
C634        C  0.26698347  0.28932629  0.68880748    -0.05900
C635        C  0.29175190  0.27388627  0.70964461    -0.24100
C636        C  0.28554864  0.27103703  0.74624728     0.18100
C637        C  0.25500439  0.28510041  0.76210765     0.15400
C638        C  0.23135493  0.30206428  0.74102881    -0.19100
C639        C  0.24774374  0.28073028  0.79863912    -0.20900
C640        C  0.26959387  0.26153270  0.81912423    -0.13500
C641        C  0.29981116  0.24719083  0.80355118     0.03200
C642        C  0.30828117  0.25297287  0.76708021    -0.25600
H643        H  0.27172710  0.29046548  0.66053590     0.08300
H644        H  0.31499797  0.26321663  0.69705708     0.11900
H645        H  0.20761969  0.31253922  0.75307269     0.11800
H646        H  0.22437467  0.29120204  0.81127226     0.11500
H647        H  0.26254101  0.25754861  0.84714564     0.12100
H648        H  0.33119674  0.24174017  0.75464356     0.14000
C649        C  0.22593434  0.29456626  0.54234736    -0.06000
C650        C  0.19296989  0.24965694  0.52659793    -0.05900
C651        C  0.20856815  0.22744727  0.50285398    -0.24100
C652        C  0.25760243  0.24937399  0.99477911     0.18100
C653        C  0.29137502  0.29450406  0.51047431     0.15400
C654        C  0.27521540  0.31728322  0.53392597    -0.19100
C655        C  0.34057305  0.31559882  0.00257772    -0.20900
C656        C  0.35597065  0.29226326  0.97927637    -0.13500
C657        C  0.32236767  0.24768043  0.96330311     0.03200
C658        C  0.27321741  0.22655720  0.97131032    -0.25600
H659        H  0.15478926  0.23176659  0.53248909     0.08300
H660        H  0.18227442  0.19290510  0.49100171     0.11900
H661        H  0.30082775  0.35182169  0.54614660     0.11800
H662        H  0.36708671  0.35003315  0.01442109     0.11500
H663        H  0.39409431  0.30931813  0.97350365     0.12100
H664        H  0.24688834  0.19207611  0.95936561     0.14000
C665        C  0.30608188  0.05923281  0.94904906    -0.06000
C666        C  0.28231012  0.01322160  0.93254728    -0.05900
C667        C  0.26215827  0.97043163  0.95237474    -0.24100
C668        C  0.26431423  0.97274190  0.98920293     0.18100
C669        C  0.28770422  0.01889082  0.50608370     0.15400
C670        C  0.30916598  0.06179410  0.98592182    -0.19100
C671        C  0.28838984  0.02132918  0.54287336    -0.20900
C672        C  0.26587434  0.97863292  0.56274882    -0.13500
C673        C  0.24291229  0.93245073  0.54637161     0.03200
C674        C  0.24271455  0.92979351  0.50943545    -0.25600
H675        H  0.27946749  0.01038092  0.90416681     0.08300
H676        H  0.24422180  0.93550740  0.93890188     0.11900
H677        H  0.32679647  0.09709469  0.99891966     0.11800
H678        H  0.30584370  0.05628363  0.55631273     0.11500
H679        H  0.26665312  0.98177703  0.59114825     0.12100
H680        H  0.22464813  0.89445999  0.49650002     0.14000
C681        C  0.29845792  0.07179782  0.78926079    -0.06000
C682        C  0.25108846  0.05408374  0.77795084    -0.05900
C683        C  0.22967258  0.01635488  0.75333784    -0.24100
C684        C  0.25501498  0.99517022  0.74005537     0.18100
C685        C  0.30257150  0.01232219  0.75150271     0.15400
C686        C  0.32423594  0.05095875  0.77579076    -0.19100
C687        C  0.32732991  0.99017564  0.73869087    -0.20900
C688        C  0.30491371  0.95102834  0.71507293    -0.13500
C689        C  0.25765898  0.93388697  0.70355184     0.03200
C690        C  0.23317119  0.95657854  0.71592014    -0.25600
H691        H  0.23078480  0.06995061  0.78778424     0.08300
H692        H  0.19317422  0.00354721  0.74485482     0.11900
H693        H  0.36076090  0.06432988  0.78455333     0.11800
H694        H  0.36374326  0.00272434  0.74724205     0.11500
H695        H  0.32447426  0.93402780  0.70593652     0.12100
H696        H  0.19655435  0.94340680  0.70749002     0.14000
C697        C  0.08023376  0.75820802  0.71292284    -0.06000
C698        C  0.09210077  0.75483042  0.74785284    -0.05900
C699        C  0.05705781  0.73762439  0.77433005    -0.24100
C700        C  0.00932579  0.72296936  0.76634752     0.18100
C701        C  0.99668030  0.72484931  0.73113373     0.15400
C702        C  0.03221210  0.74276234  0.70473439    -0.19100
C703        C  0.94871880  0.70903372  0.72294723    -0.20900
C704        C  0.91368622  0.69179160  0.74938421    -0.13500
C705        C  0.92611968  0.69095841  0.78454888     0.03200
C706        C  0.97406989  0.70666893  0.79294646    -0.25600
H707        H  0.12881452  0.76644465  0.75490981     0.08300
H708        H  0.06737757  0.73610086  0.80108516     0.11900
H709        H  0.02249316  0.74482373  0.67788436     0.11800
H710        H  0.93830704  0.71006167  0.69612731     0.11500
H711        H  0.87688561  0.68005605  0.74245460     0.12100
H712        H  0.98372652  0.70571027  0.82001837     0.14000
C713        C  0.06433556  0.74443685  0.54793151    -0.06000
C714        C  0.03646749  0.69331210  0.54622374    -0.05900
C715        C  0.99806053  0.66993343  0.02263477    -0.24100
C716        C  0.98795649  0.69745072  0.99969986     0.18100
C717        C  0.01655513  0.74900631  0.50102924     0.15400
C718        C  0.05392816  0.77212538  0.52554191    -0.19100
C719        C  0.00777789  0.77669989  0.47751993    -0.20900
C720        C  0.97043139  0.75372432  0.95332919    -0.13500
C721        C  0.94069675  0.70253591  0.95228672     0.03200
C722        C  0.94994900  0.67447123  0.97543929    -0.25600
H723        H  0.04448592  0.67151889  0.56319361     0.08300
H724        H  0.97678453  0.63044234  0.02196395     0.11900
H725        H  0.07612030  0.81161686  0.52632088     0.11800
H726        H  0.02965749  0.81617912  0.47793436     0.11500
H727        H  0.96430997  0.77635884  0.93579307     0.12100
H728        H  0.92740850  0.63503439  0.97486342     0.14000
C729        C  0.15661462  0.49361583  0.61630276    -0.06000
C730        C  0.15442271  0.50983173  0.58248681    -0.05900
C731        C  0.15507744  0.55336665  0.57800810    -0.24100
C732        C  0.15772581  0.58149784  0.60725895     0.18100
C733        C  0.15686548  0.56399985  0.64141963     0.15400
C734        C  0.15626308  0.52022700  0.64574244    -0.19100
C735        C  0.15872490  0.59163684  0.67070972    -0.20900
C736        C  0.16383340  0.63722183  0.66627178    -0.13500
C737        C  0.16750500  0.65636443  0.63244915     0.03200
C738        C  0.16312474  0.62761318  0.60294991    -0.25600
H739        H  0.15449142  0.49003987  0.55928676     0.08300
H740        H  0.15517021  0.56583185  0.55161790     0.11900
H741        H  0.15759935  0.50803076  0.67196061     0.11800
H742        H  0.15766324  0.57866014  0.69709327     0.11500
H743        H  0.16679179  0.65833477  0.68952364     0.12100
H744        H  0.16540700  0.64167165  0.57674527     0.14000
C745        C  0.74087373  0.05786995  0.80161830    -0.06000
C746        C  0.71843645  0.01170392  0.81747601    -0.05900
C747        C  0.69840259  0.96921687  0.79700198    -0.24100
C748        C  0.70146287  0.97209381  0.76023156     0.18100
C749        C  0.72437262  0.01837614  0.74398945     0.15400
C750        C  0.74313376  0.06091301  0.76475034    -0.19100
C751        C  0.72909285  0.02134005  0.70728665    -0.20900
C752        C  0.71166436  0.97900508  0.68689870    -0.13500
C753        C  0.68820514  0.93279317  0.70270021     0.03200
C754        C  0.68282204  0.92957959  0.73946625    -0.25600
H755        H  0.71645722  0.00850196  0.84584885     0.08300
H756        H  0.68127158  0.93414804  0.80995513     0.11900
H757        H  0.76112682  0.09638254  0.75230553     0.11800
H758        H  0.74676656  0.05644071  0.69435829     0.11500
H759        H  0.71606478  0.98235807  0.65861150     0.12100
H760        H  0.66524383  0.89413059  0.75192887     0.14000
C761        C  0.74370778  0.06698481  0.95941903    -0.06000
C762        C  0.69574981  0.04915767  0.96983398    -0.05900
C763        C  0.67230689  0.00957934  0.49253137    -0.24100
C764        C  0.69670557  0.98766229  0.50559921     0.18100
C765        C  0.74500675  0.00538597  0.99528468     0.15400
C766        C  0.76801035  0.04455058  0.97190355    -0.19100
C767        C  0.76968235  0.98406757  0.00892301    -0.20900
C768        C  0.74680613  0.94569816  0.53270518    -0.13500
C769        C  0.69870553  0.92761909  0.54289465     0.03200
C770        C  0.67374508  0.94863451  0.52906883    -0.25600
H771        H  0.67628155  0.06582578  0.96034076     0.08300
H772        H  0.63531476  0.99648280  0.50016161     0.11900
H773        H  0.80512654  0.05834617  0.96417220     0.11800
H774        H  0.80670627  0.99721542  0.00135744     0.11500
H775        H  0.76663409  0.92976140  0.54282897     0.12100
H776        H  0.63668689  0.93501999  0.53687179     0.14000
C777        C  0.76672137  0.70534376  0.95070566    -0.06000
C778        C  0.75643295  0.73948308  0.93688887    -0.05900
C779        C  0.73332604  0.75776201  0.95738951    -0.24100
C780        C  0.72049480  0.74271096  0.99228790     0.18100
C781        C  0.73106617  0.70881184  0.50666080     0.15400
C782        C  0.75362044  0.68996676  0.98569495    -0.19100
C783        C  0.71956447  0.69495060  0.54194087    -0.20900
C784        C  0.69868511  0.71518798  0.56294015    -0.13500
C785        C  0.68770003  0.74850390  0.54876250     0.03200
C786        C  0.69810432  0.76167490  0.51325540    -0.25600
H787        H  0.76596093  0.75189730  0.91002503     0.08300
H788        H  0.72578522  0.78393103  0.94600224     0.11900
H789        H  0.76151895  0.66387539  0.99677196     0.11800
H790        H  0.72751321  0.66915223  0.55345978     0.11500
H791        H  0.69103011  0.70480246  0.59031781     0.12100
H792        H  0.69043364  0.78805034  0.50237243     0.14000
C793        C  0.67013272  0.74382666  0.70976321    -0.06000
C794        C  0.63821183  0.69535910  0.71999377    -0.05900
C795        C  0.65308664  0.67245790  0.74345005    -0.24100
C796        C  0.69988928  0.69796914  0.75727347     0.18100
C797        C  0.73162517  0.74713327  0.74758662     0.15400
C798        C  0.71671315  0.76950563  0.72381470    -0.19100
C799        C  0.77799855  0.77328951  0.76165259    -0.20900
C800        C  0.79332314  0.75078057  0.78467828    -0.13500
C801        C  0.76272876  0.70153940  0.79394490     0.03200
C802        C  0.71574418  0.67528198  0.78035151    -0.25600
H803        H  0.60199914  0.67500727  0.70949532     0.08300
H804        H  0.62812313  0.63487229  0.75066780     0.11900
H805        H  0.74136296  0.80715851  0.71645853     0.11800
H806        H  0.80258830  0.81105953  0.75463138     0.11500
H807        H  0.82972381  0.77194553  0.79475363     0.12100
H808        H  0.69181411  0.63743817  0.78751842     0.14000
C809        C  0.49723783  0.83573880  0.62769164    -0.06000
C810        C  0.48338842  0.84532619  0.66049652    -0.05900
C811        C  0.44198756  0.84798566  0.66370750    -0.24100
C812        C  0.41373419  0.84124422  0.63415980     0.18100
C813        C  0.42882818  0.83459618  0.60068046     0.15400
C814        C  0.47060922  0.83203775  0.59762441    -0.19100
C815        C  0.40062696  0.82835930  0.57110851    -0.20900
C816        C  0.35667563  0.82618555  0.57495463    -0.13500
C817        C  0.34018701  0.82992908  0.60843278     0.03200
C818        C  0.36958168  0.83886763  0.63781213    -0.25600
H819        H  0.50332809  0.84856879  0.68408613     0.08300
H820        H  0.43115700  0.85357092  0.68950110     0.11900
H821        H  0.48105481  0.82493506  0.57216261     0.11800
H822        H  0.41175198  0.82353381  0.54520776     0.11500
H823        H  0.33452310  0.81923946  0.55194664     0.12100
H824        H  0.35730077  0.84224779  0.66369802     0.14000
C825        C  0.32605177  0.49811208  0.63381705    -0.06000
C826        C  0.34737810  0.51485135  0.66704302    -0.05900
C827        C  0.39198522  0.55812570  0.67040500    -0.24100
C828        C  0.41630380  0.58546956  0.64060009     0.18100
C829        C  0.39639036  0.56783423  0.60692489     0.15400
C830        C  0.35146019  0.52432701  0.60373295    -0.19100
C831        C  0.42105931  0.59483786  0.57707573    -0.20900
C832        C  0.46417816  0.63963672  0.58059110    -0.13500
C833        C  0.48325506  0.65853696  0.61402741     0.03200
C834        C  0.45944611  0.63078053  0.64396352    -0.25600
H835        H  0.32877481  0.49540343  0.69068350     0.08300
H836        H  0.40687130  0.57082327  0.69641121     0.11900
H837        H  0.33564376  0.51177725  0.57793303     0.11800
H838        H  0.40649375  0.58182202  0.55103686     0.11500
H839        H  0.48172476  0.66035280  0.55711624     0.12100
H840        H  0.47398766  0.64484014  0.66986740     0.14000
loop_ 
_geom_bond_atom_site_label_1 
_geom_bond_atom_site_label_2 
_geom_bond_distance 
_geom_bond_site_symmetry_2 
_ccdc_geom_bond_type 
O1           C16   1.259       .  A
O1           Al9   1.894       .  S
C2           O12   1.256       .  A
C2            O3   1.262       .  A
C2          C373   1.470       .  S
O3           Al5   1.912       .  S
O4            C6   1.263       .  A
O4           Al5   1.894       .  S
Al5          O13   1.895       .  S
Al5          O15   1.913       .  S
Al5          O14   1.776       .  S
C6           O19   1.270       .  A
C6          C365   1.474       .  S
O7           C17   1.260       .  A
O7           Al9   1.890       .  S
O8           C21   1.258       .  A
O8          Al18   1.879       .  S
Al9          O22   1.925       .  S
Al9          O19   1.941       .  S
Al9          O14   1.778       .  S
O10          C17   1.266       .  A
O10         Al18   1.925       .  S
O11          C20   1.270       .  A
O11         Al18   1.945       .  S
O12         Al18   1.888       .  S
O13          C20   1.263       .  A
O14         Al18   1.777       .  S
O15          C16   1.261       .  A
C16         C349   1.473       .  S
C17         C413   1.481       .  S
C20         C333   1.481       .  S
C21          O22   1.265       .  A
C21         C389   1.478       .  S
O23          C38   1.254       .  A
O23         Al31   1.883       .  S
C24          O34   1.259       .  A
C24          O25   1.265       .  A
C24         C269   1.476       .  S
O25         Al27   1.923       .  S
O26          C28   1.260       .  A
O26         Al27   1.881       .  S
Al27         O35   1.901       .  S
Al27         O37   1.928       .  S
Al27         O36   1.779       .  S
C28          O41   1.272       .  A
C28         C253   1.486       .  S
O29          C39   1.258       .  A
O29         Al31   1.888       .  S
O30          C43   1.259       .  A
O30         Al40   1.879       .  S
Al31         O44   1.941       .  S
Al31         O41   1.958       .  S
Al31         O36   1.780       .  S
O32          C39   1.262       .  A
O32         Al40   1.910       .  S
O33          C42   1.266       .  A
O33         Al40   1.924       .  S
O34         Al40   1.890       .  S
O35          C42   1.264       .  A
O36         Al40   1.776       .  S
O37          C38   1.263       .  A
C38         C293   1.468       .  S
C39         C397   1.474       .  S
C42         C277   1.481       .  S
C43          O44   1.269       .  A
C43         C317   1.483       .  S
O45          C60   1.259       .  A
O45         Al53   1.909       .  S
C46          O56   1.258       .  A
C46          O47   1.257       .  A
C46         C229   1.473       .  S
O47         Al49   1.902       .  S
O48          C50   1.266       .  A
O48         Al49   1.897       .  S
Al49         O57   1.895       .  S
Al49         O59   1.901       .  S
Al49         O58   1.778       .  S
C50          O63   1.271       .  A
C50         C213   1.477       .  S
O51          C61   1.260       .  A
O51         Al53   1.888       .  S
O52          C65   1.258       .  A
O52         Al62   1.885       .  S
Al53         O66   1.923       .  S
Al53         O63   1.943       .  S
Al53         O58   1.780       .  S
O54          C61   1.265       .  A
O54         Al62   1.919       .  S
O55          C64   1.272       .  A
O55         Al62   1.940       .  S
O56         Al62   1.910       .  S
O57          C64   1.266       .  A
O58         Al62   1.780       .  S
O59          C60   1.258       .  A
C60         C197   1.475       .  S
C61         C405   1.483       .  S
C64         C189   1.480       .  S
C65          O66   1.265       .  A
C65         C309   1.483       .  S
O67          C82   1.258       .  A
O67         Al75   1.909       .  S
C68          O78   1.261       .  A
C68          O69   1.257       .  A
C68         C381   1.473       .  S
O69         Al71   1.890       .  S
O70          C72   1.264       .  A
O70         Al71   1.889       .  S
Al71         O79   1.907       .  S
Al71         O81   1.884       .  S
Al71         O80   1.781       .  S
C72          O85   1.271       .  A
C72         C357   1.484       .  S
O73          C83   1.257       .  A
O73         Al75   1.892       .  S
O74          C87   1.262       .  A
O74         Al84   1.890       .  S
Al75         O88   1.922       .  S
Al75         O85   1.936       .  S
Al75         O80   1.787       .  S
O76          C83   1.259       .  A
O76         Al84   1.900       .  S
O77          C86   1.266       .  A
O77         Al84   1.923       .  S
O78         Al84   1.911       .  S
O79          C86   1.266       .  A
O80         Al84   1.785       .  S
O81          C82   1.254       .  A
C82         C301   1.479       .  S
C83         C157   1.478       .  S
C86         C285   1.473       .  S
C87          O88   1.267       .  A
C87         C173   1.484       .  S
O89         C104   1.258       .  A
O89         Al97   1.887       .  S
C90         O100   1.256       .  A
C90          O91   1.265       .  A
C90         C341   1.471       .  S
O91         Al93   1.929       .  S
O92          C94   1.259       .  A
O92         Al93   1.887       .  S
Al93        O101   1.892       .  S
Al93        O103   1.920       .  S
Al93        O102   1.776       .  S
C94         O107   1.269       .  A
C94         C325   1.481       .  S
O95         C105   1.261       .  A
O95         Al97   1.899       .  S
O96         C109   1.261       .  A
O96        Al106   1.887       .  S
Al97        O110   1.934       .  S
Al97        O107   1.946       .  S
Al97        O102   1.780       .  S
O98         C105   1.263       .  A
O98        Al106   1.908       .  S
O99         C108   1.265       .  A
O99        Al106   1.931       .  S
O100       Al106   1.875       .  S
O101        C108   1.260       .  A
O102       Al106   1.776       .  S
O103        C104   1.265       .  A
C104        C205   1.476       .  S
C105        C133   1.474       .  S
C108        C181   1.476       .  S
C109        O110   1.268       .  A
C109        C165   1.481       .  S
O111        C126   1.258       .  A
O111       Al119   1.889       .  S
C112        O122   1.259       .  A
C112        O113   1.263       .  A
C112        C237   1.479       .  S
O113       Al115   1.913       .  S
O114        C116   1.262       .  A
O114       Al115   1.903       .  S
Al115       O123   1.896       .  S
Al115       O125   1.918       .  S
Al115       O124   1.777       .  S
C116        O129   1.265       .  A
C116        C221   1.483       .  S
O117        C127   1.260       .  A
O117       Al119   1.885       .  S
O118        C131   1.262       .  A
O118       Al128   1.900       .  S
Al119       O132   1.907       .  S
Al119       O129   1.924       .  S
Al119       O124   1.779       .  S
O120        C127   1.267       .  A
O120       Al128   1.928       .  S
O121        C130   1.268       .  A
O121       Al128   1.942       .  S
O122       Al128   1.896       .  S
O123        C130   1.261       .  A
O124       Al128   1.783       .  S
O125        C126   1.263       .  A
C126        C261   1.471       .  S
C127        C149   1.479       .  S
C130        C245   1.483       .  S
C131        O132   1.262       .  A
C131        C141   1.478       .  S
C133        C134   1.405       .  A
C133        C138   1.404       .  A
C134        C135   1.395       .  A
C134        H143   1.083       .  S
C135        C136   1.400       .  A
C135        H144   1.084       .  S
C136        C142   1.403       .  A
C136        C137   1.415       .  A
C137        C139   1.401       .  A
C137        C138   1.404       .  A
C138        H145   1.084       .  S
C139        C140   1.396       .  A
C139        H146   1.084       .  S
C140        C141   1.407       .  A
C140        H147   1.083       .  S
C141        C142   1.404       .  A
C142        H148   1.084       .  S
C149        C150   1.406       .  A
C149        C154   1.406       .  A
C150        C151   1.395       .  A
C150        H159   1.083       .  S
C151        C152   1.400       .  A
C151        H160   1.084       .  S
C152        C158   1.402       .  A
C152        C153   1.414       .  A
C153        C155   1.402       .  A
C153        C154   1.405       .  A
C154        H161   1.084       .  S
C155        C156   1.398       .  A
C155        H162   1.084       .  S
C156        C157   1.406       .  A
C156        H163   1.083       .  S
C157        C158   1.405       .  A
C158        H164   1.084       .  S
C165        C166   1.407       .  A
C165        C170   1.406       .  A
C166        C167   1.397       .  A
C166        H175   1.083       .  S
C167        C168   1.401       .  A
C167        H176   1.084       .  S
C168        C174   1.405       .  A
C168        C169   1.414       .  A
C169        C171   1.401       .  A
C169        C170   1.406       .  A
C170        H177   1.084       .  S
C171        C172   1.398       .  A
C171        H178   1.084       .  S
C172        C173   1.408       .  A
C172        H179   1.083       .  S
C173        C174   1.406       .  A
C174        H180   1.084       .  S
C181        C182   1.405       .  A
C181        C186   1.405       .  A
C182        C183   1.398   1_655  A
C182        H191   1.083       .  S
C183        C604   1.403       .  A
C183        H192   1.084       .  S
C184        C190   1.405   1_556  A
C184        C603   1.403       .  A
C184        C605   1.414   1_456  A
C185        C186   1.405       .  A
C185        C604   1.414   1_655  A
C185        C607   1.402       .  A
C186        H193   1.084       .  S
C187        C188   1.398   1_655  A
C187        C605   1.402       .  A
C187        H194   1.084       .  S
C188        C189   1.406       .  A
C188        H195   1.083       .  S
C189        C190   1.407       .  A
C190        H196   1.084       .  S
C197        C198   1.407       .  A
C197        C202   1.405       .  A
C198        C199   1.392       .  A
C198        H207   1.083       .  S
C199        C200   1.398   1_455  A
C199        H208   1.084   1_455  S
C200        C206   1.399       .  A
C200        C201   1.415       .  A
C201        C203   1.402       .  A
C201        C202   1.405   1_655  A
C202        H209   1.084       .  S
C203        C204   1.398       .  A
C203        H210   1.084       .  S
C204        C205   1.406       .  A
C204        H211   1.083       .  S
C205        C206   1.403       .  A
C206        H212   1.084       .  S
C213        C214   1.404       .  A
C213        C218   1.407       .  A
C214        C215   1.397       .  A
C214        H223   1.083       .  S
C215        C216   1.402       .  A
C215        H224   1.084       .  S
C216        C222   1.404       .  A
C216        C217   1.414       .  A
C217        C219   1.404       .  A
C217        C218   1.407       .  A
C218        H225   1.084       .  S
C219        C220   1.400       .  A
C219        H226   1.084       .  S
C220        C221   1.406       .  A
C220        H227   1.083       .  S
C221        C222   1.407       .  A
C222        H228   1.084       .  S
C229        C230   1.405       .  A
C229        C234   1.406       .  A
C230        C231   1.391       .  A
C230        H239   1.084       .  S
C231        C652   1.398   1_554  A
C231        H240   1.084   1_554  S
C232        C238   1.398       .  A
C232        C651   1.398       .  A
C232        C653   1.415       .  A
C233        C234   1.408       .  A
C233        C652   1.415   1_554  A
C233        C655   1.404       .  A
C234        H241   1.084       .  S
C235        C236   1.401       .  A
C235        C653   1.404       .  A
C235        H242   1.083       .  S
C236        C237   1.407       .  A
C236        H243   1.083       .  S
C237        C238   1.403       .  A
C238        H244   1.084       .  S
C245        C246   1.406       .  A
C245        C250   1.406       .  A
C246        C247   1.400   1_545  A
C246        H255   1.083       .  S
C247        C248   1.403       .  A
C247        H256   1.083       .  S
C248        C674   1.411       .  A
C248        C669   1.416   1_565  A
C249        C251   1.401       .  A
C249        C668   1.416   1_544  A
C249        C670   1.408   1_554  A
C250        C669   1.408       .  A
C250        H257   1.084       .  S
C251        C252   1.397   1_545  A
C251        H258   1.084       .  S
C252        C253   1.408       .  A
C252        H259   1.083       .  S
C253        C254   1.407       .  A
C254        C668   1.411   1_554  A
C254        H260   1.084   1_554  S
C261        C262   1.404       .  A
C261        C266   1.406       .  A
C262        C263   1.393       .  A
C262        H271   1.083       .  S
C263        C264   1.400   1_545  A
C263        H272   1.084       .  S
C264        C270   1.399       .  A
C264        C265   1.414   1_565  A
C265        C267   1.402   1_545  A
C265        C266   1.403       .  A
C266        H273   1.084       .  S
C267        C268   1.398       .  A
C267        H274   1.084   1_565  S
C268        C269   1.406       .  A
C268        H275   1.083       .  S
C269        C270   1.404       .  A
C270        H276   1.084       .  S
C277        C278   1.407       .  A
C277        C282   1.405       .  A
C278        C279   1.397       .  A
C278        H287   1.083       .  S
C279        C280   1.401       .  A
C279        H288   1.084       .  S
C280        C286   1.405   1_455  A
C280        C281   1.415   1_455  A
C281        C283   1.401       .  A
C281        C282   1.404   1_655  A
C282        H289   1.084       .  S
C283        C284   1.396       .  A
C283        H290   1.084       .  S
C284        C285   1.405       .  A
C284        H291   1.083       .  S
C285        C286   1.403       .  A
C286        H292   1.084       .  S
C293        C294   1.404       .  A
C293        C298   1.400       .  A
C294        C715   1.399   1_455  A
C294        H303   1.083       .  S
C295        C296   1.403       .  A
C295        C714   1.399   1_655  A
C295        H304   1.083       .  S
C296        C302   1.407       .  A
C296        C717   1.416   1_655  A
C297        C299   1.397   1_554  A
C297        C298   1.401       .  A
C297        C716   1.416   1_454  A
C298        H305   1.085       .  S
C299        C720   1.392   1_455  A
C299        H306   1.084       .  S
C300        C301   1.408       .  A
C300        C719   1.392   1_655  A
C300        H307   1.083       .  S
C301        C302   1.406       .  A
C302        H308   1.084       .  S
C309        C310   1.408       .  A
C309        C314   1.405       .  A
C310        C311   1.398       .  A
C310        H319   1.083       .  S
C311        C312   1.401       .  A
C311        H320   1.084       .  S
C312        C318   1.408       .  A
C312        C313   1.415       .  A
C313        C315   1.399       .  A
C313        C314   1.405       .  A
C314        H321   1.084       .  S
C315        C316   1.395       .  A
C315        H322   1.084       .  S
C316        C317   1.408       .  A
C316        H323   1.083       .  S
C317        C318   1.406       .  A
C318        H324   1.084       .  S
C325        C326   1.406       .  A
C325        C330   1.405       .  A
C326        C327   1.398   1_545  A
C326        H335   1.083       .  S
C327        C328   1.402       .  A
C327        H336   1.084       .  S
C328        C334   1.408       .  A
C328        C329   1.415   1_565  A
C329        C331   1.402       .  A
C329        C330   1.408       .  A
C330        H337   1.084       .  S
C331        C332   1.399   1_545  A
C331        H338   1.084       .  S
C332        C333   1.406       .  A
C332        H339   1.083       .  S
C333        C334   1.406       .  A
C334        H340   1.084       .  S
C341        C342   1.406       .  A
C341        C346   1.403       .  A
C342        C763   1.394       .  A
C342        H351   1.083       .  S
C343        C344   1.400   1_546  A
C343        C762   1.394       .  A
C343        H352   1.084   1_546  S
C344        C350   1.400       .  A
C344        C765   1.415   1_564  A
C345        C347   1.400   1_545  A
C345        C346   1.401       .  A
C345        C764   1.415   1_545  A
C346        H353   1.084       .  S
C347        C768   1.395       .  A
C347        H354   1.084       .  S
C348        C349   1.406       .  A
C348        C767   1.395       .  A
C348        H355   1.083       .  S
C349        C350   1.403       .  A
C350        H356   1.084       .  S
C357        C358   1.407       .  A
C357        C362   1.407       .  A
C358        C359   1.397       .  A
C358        H367   1.083       .  S
C359        C360   1.401       .  A
C359        H368   1.084       .  S
C360        C786   1.405       .  A
C360        C781   1.415       .  A
C361        C363   1.403       .  A
C361        C780   1.415   1_554  A
C361        C782   1.406   1_554  A
C362        C781   1.406       .  A
C362        H369   1.084       .  S
C363        C364   1.399       .  A
C363        H370   1.083       .  S
C364        C365   1.404       .  A
C364        H371   1.083       .  S
C365        C366   1.404       .  A
C366        C780   1.405   1_554  A
C366        H372   1.085       .  S
C373        C374   1.405       .  A
C373        C378   1.401       .  A
C374        C375   1.399       .  A
C374        H383   1.083       .  S
C375        C376   1.403       .  A
C375        H384   1.083       .  S
C376        C382   1.405       .  A
C376        C377   1.415       .  A
C377        C379   1.396       .  A
C377        C378   1.395       .  A
C378        H385   1.085       .  S
C379        C380   1.389       .  A
C379        H386   1.084       .  S
C380        C381   1.408       .  A
C380        H387   1.083       .  S
C381        C382   1.405       .  A
C382        H388   1.084       .  S
C389        C390   1.407       .  A
C389        C394   1.406       .  A
C390        C391   1.394       .  A
C390        H399   1.083       .  S
C391        C392   1.399       .  A
C391        H400   1.084       .  S
C392        C398   1.400       .  A
C392        C393   1.414       .  A
C393        C395   1.402       .  A
C393        C394   1.404       .  A
C394        H401   1.084       .  S
C395        C396   1.398       .  A
C395        H402   1.084       .  S
C396        C397   1.405       .  A
C396        H403   1.083       .  S
C397        C398   1.403       .  A
C398        H404   1.085       .  S
C405        C406   1.407       .  A
C405        C410   1.407       .  A
C406        C407   1.397       .  A
C406        H415   1.083       .  S
C407        C408   1.401       .  A
C407        H416   1.084       .  S
C408        C414   1.406       .  A
C408        C409   1.414       .  A
C409        C411   1.401       .  A
C409        C410   1.406       .  A
C410        H417   1.084       .  S
C411        C412   1.397       .  A
C411        H418   1.084       .  S
C412        C413   1.406       .  A
C412        H419   1.083       .  S
C413        C414   1.406       .  A
C414        H420   1.084       .  S
O421        C436   1.259       .  A
O421       Al429   1.893       .  S
C422        O432   1.256       .  A
C422        O423   1.262       .  A
C422        C793   1.470       .  S
O423       Al425   1.912       .  S
O424        C426   1.263       .  A
O424       Al425   1.894       .  S
Al425       O433   1.895       .  S
Al425       O435   1.913       .  S
Al425       O434   1.776       .  S
C426        O439   1.270       .  A
C426        C785   1.474       .  S
O427        C437   1.260       .  A
O427       Al429   1.890       .  S
O428        C441   1.258       .  A
O428       Al438   1.878       .  S
Al429       O442   1.925       .  S
Al429       O439   1.941       .  S
Al429       O434   1.778       .  S
O430        C437   1.266       .  A
O430       Al438   1.925       .  S
O431        C440   1.270       .  A
O431       Al438   1.945       .  S
O432       Al438   1.888       .  S
O433        C440   1.263       .  A
O434       Al438   1.777       .  S
O435        C436   1.261       .  A
C436        C769   1.473       .  S
C437        C833   1.481       .  S
C440        C753   1.481       .  S
C441        O442   1.265       .  A
C441        C809   1.478       .  S
O443        C458   1.254       .  A
O443       Al451   1.883       .  S
C444        O454   1.259       .  A
C444        O445   1.265       .  A
C444        C689   1.476       .  S
O445       Al447   1.923       .  S
O446        C448   1.260       .  A
O446       Al447   1.881       .  S
Al447       O455   1.901       .  S
Al447       O457   1.928       .  S
Al447       O456   1.779       .  S
C448        O461   1.272       .  A
C448        C673   1.486       .  S
O449        C459   1.258       .  A
O449       Al451   1.888       .  S
O450        C463   1.259       .  A
O450       Al460   1.879       .  S
Al451       O464   1.941       .  S
Al451       O461   1.958       .  S
Al451       O456   1.780       .  S
O452        C459   1.262       .  A
O452       Al460   1.910       .  S
O453        C462   1.266       .  A
O453       Al460   1.924       .  S
O454       Al460   1.890       .  S
O455        C462   1.264       .  A
O456       Al460   1.776       .  S
O457        C458   1.263       .  A
C458        C713   1.468       .  S
C459        C817   1.474       .  S
C462        C697   1.481       .  S
C463        O464   1.269       .  A
C463        C737   1.483       .  S
O465        C480   1.259       .  A
O465       Al473   1.909       .  S
C466        O476   1.258       .  A
C466        O467   1.257       .  A
C466        C649   1.473       .  S
O467       Al469   1.902       .  S
O468        C470   1.266       .  A
O468       Al469   1.897       .  S
Al469       O477   1.895       .  S
Al469       O479   1.901       .  S
Al469       O478   1.778       .  S
C470        O483   1.271       .  A
C470        C633   1.477       .  S
O471        C481   1.260       .  A
O471       Al473   1.888       .  S
O472        C485   1.258       .  A
O472       Al482   1.885       .  S
Al473       O486   1.923       .  S
Al473       O483   1.943       .  S
Al473       O478   1.780       .  S
O474        C481   1.265       .  A
O474       Al482   1.919       .  S
O475        C484   1.272       .  A
O475       Al482   1.940       .  S
O476       Al482   1.910       .  S
O477        C484   1.266       .  A
O478       Al482   1.780       .  S
O479        C480   1.258       .  A
C480        C617   1.475       .  S
C481        C825   1.483       .  S
C484        C609   1.480       .  S
C485        O486   1.265       .  A
C485        C729   1.483       .  S
O487        C502   1.258       .  A
O487       Al495   1.909       .  S
C488        O498   1.261       .  A
C488        O489   1.257       .  A
C488        C801   1.473       .  S
O489       Al491   1.890       .  S
O490        C492   1.264       .  A
O490       Al491   1.889       .  S
Al491       O499   1.907       .  S
Al491       O501   1.884       .  S
Al491       O500   1.781       .  S
C492        O505   1.271       .  A
C492        C777   1.484       .  S
O493        C503   1.257       .  A
O493       Al495   1.892       .  S
O494        C507   1.262       .  A
O494       Al504   1.890       .  S
Al495       O508   1.922       .  S
Al495       O505   1.936       .  S
Al495       O500   1.787       .  S
O496        C503   1.259       .  A
O496       Al504   1.900       .  S
O497        C506   1.266       .  A
O497       Al504   1.923       .  S
O498       Al504   1.911       .  S
O499        C506   1.266       .  A
O500       Al504   1.785       .  S
O501        C502   1.254       .  A
C502        C721   1.479       .  S
C503        C577   1.478       .  S
C506        C705   1.473       .  S
C507        O508   1.267       .  A
C507        C593   1.484       .  S
O509        C524   1.258       .  A
O509       Al517   1.887       .  S
C510        O520   1.256       .  A
C510        O511   1.265       .  A
C510        C761   1.471       .  S
O511       Al513   1.929       .  S
O512        C514   1.259       .  A
O512       Al513   1.887       .  S
Al513       O521   1.892       .  S
Al513       O523   1.920       .  S
Al513       O522   1.776       .  S
C514        O527   1.269       .  A
C514        C745   1.481       .  S
O515        C525   1.261       .  A
O515       Al517   1.899       .  S
O516        C529   1.261       .  A
O516       Al526   1.887       .  S
Al517       O530   1.934       .  S
Al517       O527   1.946       .  S
Al517       O522   1.780       .  S
O518        C525   1.263       .  A
O518       Al526   1.908       .  S
O519        C528   1.265       .  A
O519       Al526   1.931       .  S
O520       Al526   1.875       .  S
O521        C528   1.260       .  A
O522       Al526   1.776       .  S
O523        C524   1.265       .  A
C524        C625   1.476       .  S
C525        C553   1.474       .  S
C528        C601   1.476       .  S
C529        O530   1.268       .  A
C529        C585   1.481       .  S
O531        C546   1.258       .  A
O531       Al539   1.889       .  S
C532        O542   1.259       .  A
C532        O533   1.263       .  A
C532        C657   1.479       .  S
O533       Al535   1.913       .  S
O534        C536   1.262       .  A
O534       Al535   1.903       .  S
Al535       O543   1.896       .  S
Al535       O545   1.918       .  S
Al535       O544   1.777       .  S
C536        O549   1.265       .  A
C536        C641   1.483       .  S
O537        C547   1.260       .  A
O537       Al539   1.884       .  S
O538        C551   1.262       .  A
O538       Al548   1.900       .  S
Al539       O552   1.907       .  S
Al539       O549   1.924       .  S
Al539       O544   1.779       .  S
O540        C547   1.267       .  A
O540       Al548   1.928       .  S
O541        C550   1.268       .  A
O541       Al548   1.942       .  S
O542       Al548   1.896       .  S
O543        C550   1.261       .  A
O544       Al548   1.783       .  S
O545        C546   1.263       .  A
C546        C681   1.471       .  S
C547        C569   1.479       .  S
C550        C665   1.483       .  S
C551        O552   1.262       .  A
C551        C561   1.478       .  S
C553        C554   1.405       .  A
C553        C558   1.404       .  A
C554        C555   1.395       .  A
C554        H563   1.083       .  S
C555        C556   1.400       .  A
C555        H564   1.084       .  S
C556        C562   1.403       .  A
C556        C557   1.415       .  A
C557        C559   1.401       .  A
C557        C558   1.404       .  A
C558        H565   1.084       .  S
C559        C560   1.396       .  A
C559        H566   1.084       .  S
C560        C561   1.407       .  A
C560        H567   1.083       .  S
C561        C562   1.404       .  A
C562        H568   1.084       .  S
C569        C570   1.406       .  A
C569        C574   1.406       .  A
C570        C571   1.395       .  A
C570        H579   1.083       .  S
C571        C572   1.400       .  A
C571        H580   1.084       .  S
C572        C578   1.402       .  A
C572        C573   1.414       .  A
C573        C575   1.402       .  A
C573        C574   1.405       .  A
C574        H581   1.084       .  S
C575        C576   1.398       .  A
C575        H582   1.084       .  S
C576        C577   1.406       .  A
C576        H583   1.083       .  S
C577        C578   1.405       .  A
C578        H584   1.084       .  S
C585        C586   1.407       .  A
C585        C590   1.406       .  A
C586        C587   1.397       .  A
C586        H595   1.083       .  S
C587        C588   1.401       .  A
C587        H596   1.084       .  S
C588        C594   1.405       .  A
C588        C589   1.414       .  A
C589        C591   1.401       .  A
C589        C590   1.406       .  A
C590        H597   1.084       .  S
C591        C592   1.398       .  A
C591        H598   1.084       .  S
C592        C593   1.408       .  A
C592        H599   1.083       .  S
C593        C594   1.406       .  A
C594        H600   1.084       .  S
C601        C602   1.405       .  A
C601        C606   1.405       .  A
C602        C603   1.398   1_655  A
C602        H611   1.083       .  S
C603        H612   1.084       .  S
C604        C610   1.405       .  A
C605        C606   1.405   1_554  A
C606        H613   1.084   1_556  S
C607        C608   1.398   1_655  A
C607        H614   1.084       .  S
C608        C609   1.406       .  A
C608        H615   1.083       .  S
C609        C610   1.407       .  A
C610        H616   1.084       .  S
C617        C618   1.407       .  A
C617        C622   1.405       .  A
C618        C619   1.392       .  A
C618        H627   1.083       .  S
C619        C620   1.398   1_455  A
C619        H628   1.084   1_455  S
C620        C626   1.399       .  A
C620        C621   1.415       .  A
C621        C623   1.402       .  A
C621        C622   1.405   1_655  A
C622        H629   1.084       .  S
C623        C624   1.398       .  A
C623        H630   1.084       .  S
C624        C625   1.406       .  A
C624        H631   1.083       .  S
C625        C626   1.403       .  A
C626        H632   1.084       .  S
C633        C634   1.404       .  A
C633        C638   1.407       .  A
C634        C635   1.397       .  A
C634        H643   1.083       .  S
C635        C636   1.402       .  A
C635        H644   1.084       .  S
C636        C642   1.404       .  A
C636        C637   1.414       .  A
C637        C639   1.404       .  A
C637        C638   1.407       .  A
C638        H645   1.084       .  S
C639        C640   1.400       .  A
C639        H646   1.084       .  S
C640        C641   1.406       .  A
C640        H647   1.083       .  S
C641        C642   1.407       .  A
C642        H648   1.084       .  S
C649        C650   1.405       .  A
C649        C654   1.406       .  A
C650        C651   1.391       .  A
C650        H659   1.084       .  S
C651        H660   1.084       .  S
C652        C658   1.398       .  A
C653        C654   1.408       .  A
C654        H661   1.084       .  S
C655        C656   1.401   1_554  A
C655        H662   1.083       .  S
C656        C657   1.407       .  A
C656        H663   1.083       .  S
C657        C658   1.403       .  A
C658        H664   1.084       .  S
C665        C666   1.406       .  A
C665        C670   1.406       .  A
C666        C667   1.400   1_545  A
C666        H675   1.083       .  S
C667        C668   1.403       .  A
C667        H676   1.083       .  S
C669        C671   1.401       .  A
C670        H677   1.084       .  S
C671        C672   1.397   1_545  A
C671        H678   1.084       .  S
C672        C673   1.408       .  A
C672        H679   1.083       .  S
C673        C674   1.407       .  A
C674        H680   1.084       .  S
C681        C682   1.404       .  A
C681        C686   1.406       .  A
C682        C683   1.393       .  A
C682        H691   1.083       .  S
C683        C684   1.400   1_545  A
C683        H692   1.084       .  S
C684        C690   1.399       .  A
C684        C685   1.414   1_565  A
C685        C687   1.402   1_545  A
C685        C686   1.403       .  A
C686        H693   1.084       .  S
C687        C688   1.398       .  A
C687        H694   1.084   1_565  S
C688        C689   1.406       .  A
C688        H695   1.083       .  S
C689        C690   1.404       .  A
C690        H696   1.084       .  S
C697        C698   1.407       .  A
C697        C702   1.405       .  A
C698        C699   1.397       .  A
C698        H707   1.083       .  S
C699        C700   1.401       .  A
C699        H708   1.084       .  S
C700        C706   1.405   1_455  A
C700        C701   1.415   1_455  A
C701        C703   1.401       .  A
C701        C702   1.404   1_655  A
C702        H709   1.084       .  S
C703        C704   1.396       .  A
C703        H710   1.084       .  S
C704        C705   1.405       .  A
C704        H711   1.083       .  S
C705        C706   1.403       .  A
C706        H712   1.084       .  S
C713        C714   1.404       .  A
C713        C718   1.400       .  A
C714        H723   1.083       .  S
C715        C716   1.403   1_554  A
C715        H724   1.083       .  S
C716        C722   1.407       .  A
C717        C719   1.397       .  A
C717        C718   1.401       .  A
C718        H725   1.085       .  S
C719        H726   1.084       .  S
C720        C721   1.408       .  A
C720        H727   1.083       .  S
C721        C722   1.406       .  A
C722        H728   1.084       .  S
C729        C730   1.408       .  A
C729        C734   1.405       .  A
C730        C731   1.398       .  A
C730        H739   1.083       .  S
C731        C732   1.401       .  A
C731        H740   1.084       .  S
C732        C738   1.408       .  A
C732        C733   1.415       .  A
C733        C735   1.399       .  A
C733        C734   1.405       .  A
C734        H741   1.084       .  S
C735        C736   1.395       .  A
C735        H742   1.084       .  S
C736        C737   1.408       .  A
C736        H743   1.083       .  S
C737        C738   1.406       .  A
C738        H744   1.084       .  S
C745        C746   1.406       .  A
C745        C750   1.405       .  A
C746        C747   1.398   1_545  A
C746        H755   1.083       .  S
C747        C748   1.402       .  A
C747        H756   1.084       .  S
C748        C754   1.408       .  A
C748        C749   1.415   1_565  A
C749        C751   1.402       .  A
C749        C750   1.408       .  A
C750        H757   1.084       .  S
C751        C752   1.399   1_545  A
C751        H758   1.084       .  S
C752        C753   1.406       .  A
C752        H759   1.083       .  S
C753        C754   1.406       .  A
C754        H760   1.084       .  S
C761        C762   1.406       .  A
C761        C766   1.403       .  A
C762        H771   1.083       .  S
C763        C764   1.400   1_545  A
C763        H772   1.084   1_545  S
C764        C770   1.400       .  A
C765        C767   1.400   1_546  A
C765        C766   1.401       .  A
C766        H773   1.084       .  S
C767        H774   1.084       .  S
C768        C769   1.406       .  A
C768        H775   1.083       .  S
C769        C770   1.403       .  A
C770        H776   1.084       .  S
C777        C778   1.407       .  A
C777        C782   1.407       .  A
C778        C779   1.397       .  A
C778        H787   1.083       .  S
C779        C780   1.401       .  A
C779        H788   1.084       .  S
C781        C783   1.403       .  A
C782        H789   1.084       .  S
C783        C784   1.399       .  A
C783        H790   1.083       .  S
C784        C785   1.404       .  A
C784        H791   1.083       .  S
C785        C786   1.404       .  A
C786        H792   1.085       .  S
C793        C794   1.405       .  A
C793        C798   1.401       .  A
C794        C795   1.399       .  A
C794        H803   1.083       .  S
C795        C796   1.403       .  A
C795        H804   1.083       .  S
C796        C802   1.405       .  A
C796        C797   1.415       .  A
C797        C799   1.396       .  A
C797        C798   1.395       .  A
C798        H805   1.085       .  S
C799        C800   1.389       .  A
C799        H806   1.084       .  S
C800        C801   1.408       .  A
C800        H807   1.083       .  S
C801        C802   1.405       .  A
C802        H808   1.084       .  S
C809        C810   1.407       .  A
C809        C814   1.406       .  A
C810        C811   1.394       .  A
C810        H819   1.083       .  S
C811        C812   1.399       .  A
C811        H820   1.084       .  S
C812        C818   1.400       .  A
C812        C813   1.414       .  A
C813        C815   1.402       .  A
C813        C814   1.404       .  A
C814        H821   1.084       .  S
C815        C816   1.398       .  A
C815        H822   1.084       .  S
C816        C817   1.405       .  A
C816        H823   1.083       .  S
C817        C818   1.403       .  A
C818        H824   1.085       .  S
C825        C826   1.407       .  A
C825        C830   1.407       .  A
C826        C827   1.397       .  A
C826        H835   1.083       .  S
C827        C828   1.401       .  A
C827        H836   1.084       .  S
C828        C834   1.406       .  A
C828        C829   1.414       .  A
C829        C831   1.401       .  A
C829        C830   1.406       .  A
C830        H837   1.084       .  S
C831        C832   1.397       .  A
C831        H838   1.084       .  S
C832        C833   1.406       .  A
C832        H839   1.083       .  S
C833        C834   1.406       .  A
C834        H840   1.084       .  S
