geometry optimzed in LAMMPS
_audit_creation_date              2020-11-30 
_audit_creation_method            'lammps2cif' 
_symmetry_space_group_name_H-M    'P1' 
_symmetry_Int_Tables_number       1 
_symmetry_cell_setting            triclinic 
loop_ 
_symmetry_equiv_pos_as_xyz 
  x,y,z 
_cell_length_a                    81.35329587398249 
_cell_length_b                    81.48845952270123 
_cell_length_c                    55.43620485656339 
_cell_angle_alpha                 90.01897297398232 
_cell_angle_beta                  90.01590584633716 
_cell_angle_gamma                 125.6856654637361 
loop_ 
_atom_site_label 
_atom_site_type_symbol 
_atom_site_fract_x 
_atom_site_fract_y 
_atom_site_fract_z 
_atom_site_charge 
N1          N  0.04776091  0.45525043  0.47098255    -0.27290
N2          N  0.03843679  0.46190407  0.45963807    -0.35150
C3          C  0.02299391  0.45826781  0.47320143     0.01050
C4          C  0.02226329  0.44860504  0.49399659     0.07070
C5          C  0.03816874  0.44685686  0.49204071    -0.06030
H6          H  0.01471081  0.46465406  0.46974303     0.07740
H7          H  0.04394937  0.44238475  0.50620416     0.08940
Cu8        Cu  0.05153253  0.48324403  0.43281105     0.44170
Cu9        Cu  0.07634239  0.46389702  0.46043712     0.41990
Cu10       Cu  0.10509064  0.51384859  0.43146219     0.43880
N11         N  0.06862678  0.51404017  0.42879403    -0.34680
N12         N  0.08859475  0.52584590  0.42968554    -0.28930
C13         C  0.09484485  0.54497271  0.43389758    -0.05030
C14         C  0.07785890  0.54492883  0.43621105     0.07180
C15         C  0.06159035  0.52513189  0.43266435     0.00980
H16         H  0.11035134  0.55746629  0.43757794     0.08630
H17         H  0.04577978  0.51883948  0.43535732     0.07710
N18         N  0.11537634  0.49591616  0.43520253    -0.36130
N19         N  0.10518281  0.47799224  0.44579200    -0.28310
C20         C  0.11589177  0.47023541  0.44389037    -0.03550
C21         C  0.13355481  0.48385387  0.43137508     0.05060
C22         C  0.13270066  0.49992977  0.42620368     0.03160
H23         H  0.11085324  0.45546841  0.45038428     0.08260
H24         H  0.14351818  0.51323681  0.41578814     0.07100
N25         N  0.08380275  0.59062268  0.45666671    -0.27290
N26         N  0.06469407  0.57669193  0.46233955    -0.35150
C27         C  0.05983268  0.55847727  0.45598182     0.01050
C28         C  0.07669973  0.56102248  0.44584396     0.07070
C29         C  0.09170895  0.58158438  0.44666917    -0.06030
H30         H  0.04502918  0.54443649  0.45843865     0.07740
H31         H  0.10695524  0.58944945  0.43971969     0.08940
Cu32       Cu  0.04579424  0.58307868  0.47745185     0.44170
Cu33       Cu  0.09666676  0.62121596  0.45949307     0.41990
Cu34       Cu  0.05855951  0.63169640  0.46283285     0.43880
N35         N  0.03147279  0.59478233  0.49264598    -0.34680
N36         N  0.03568619  0.61255643  0.48673056    -0.28930
C37         C  0.02686902  0.61759387  0.50272276    -0.05030
C38         C  0.01664986  0.60223338  0.51947903     0.07180
C39         C  0.01998034  0.58808639  0.51258405     0.00980
H40         H  0.02991259  0.63238610  0.50392309     0.08630
H41         H  0.01623561  0.57501727  0.52282753     0.07710
N42         N  0.08778528  0.65183034  0.45037942    -0.36130
N43         N  0.10211688  0.64894417  0.45232605    -0.28310
C44         C  0.11976780  0.66574980  0.44517693    -0.03550
C45         C  0.11633702  0.67970356  0.43750748     0.05060
C46         C  0.09582347  0.67027555  0.44112153     0.03160
H47         H  0.13393374  0.66736680  0.44488265     0.08260
H48         H  0.08722972  0.67620805  0.43699906     0.07100
N49         N  0.99112994  0.59811659  0.57492847    -0.27290
N50         N  0.00659905  0.59841994  0.58298752    -0.35150
C51         C  0.01891272  0.60195289  0.56458692     0.01050
C52         C  0.01099149  0.60406613  0.54386525     0.07070
C53         C  0.99337470  0.60163706  0.55096554    -0.06030
H54         H  0.03124036  0.60042064  0.56566408     0.07740
H55         H  0.98193271  0.60014650  0.53925724     0.08940
Cu56       Cu  0.00653080  0.58522151  0.61444587     0.44170
Cu57       Cu  0.96553440  0.58751566  0.59585404     0.41990
Cu58       Cu  0.95897047  0.55193589  0.64183817     0.43880
N59         N  0.99751516  0.55773296  0.62796575    -0.34680
N60         N  0.97964968  0.54506006  0.63806393    -0.28930
C61         C  0.97590004  0.52668544  0.63921472    -0.05030
C62         C  0.99199007  0.52783539  0.62872267     0.07180
C63         C  0.00543549  0.54773704  0.62186928     0.00980
H64         H  0.96152149  0.51306451  0.64447991     0.08630
H65         H  0.01886859  0.55398756  0.61095802     0.07710
N66         N  0.94010645  0.56108675  0.63783848    -0.36130
N67         N  0.94225355  0.57381866  0.62114353    -0.28310
C68         C  0.92738261  0.57632130  0.62377097    -0.03550
C69         C  0.91537168  0.56458586  0.64299270     0.05060
C70         C  0.92388539  0.55517892  0.65145864     0.03160
H71         H  0.92553919  0.58604809  0.61264308     0.08260
H72         H  0.91876636  0.54492177  0.66659740     0.07100
N73         N  0.94933851  0.40675832  0.60163017    -0.27290
N74         N  0.94873933  0.41780634  0.61854676    -0.35150
C75         C  0.93427542  0.40572695  0.63454592     0.01050
C76         C  0.92507815  0.38600331  0.62739921     0.07070
C77         C  0.93499240  0.38710577  0.60642348    -0.06030
H78         H  0.93080709  0.41095205  0.65037320     0.07740
H79         H  0.93212930  0.37462101  0.59563226     0.08940
Cu80       Cu  0.96669943  0.44868621  0.61928294     0.44170
Cu81       Cu  0.97024399  0.41986061  0.57366287     0.41990
Cu82       Cu  0.00022136  0.47608305  0.57112688     0.43880
N83         N  0.98229438  0.47933422  0.61637550    -0.34680
N84         N  0.99499342  0.48996681  0.59863730    -0.28930
C85         C  0.00148371  0.50934133  0.60103838    -0.05030
C86         C  0.99210306  0.51065103  0.62111410     0.07180
C87         C  0.98005192  0.49135253  0.63030371     0.00980
H88         H  0.01122765  0.52125055  0.58831557     0.08630
H89         H  0.96969586  0.48619487  0.64536143     0.07710
N90         N  0.00247517  0.45791031  0.54684048    -0.36130
N91         N  0.99244090  0.43800804  0.54821951    -0.28310
C92         C  0.99832057  0.43159176  0.52997929    -0.03550
C93         C  0.01245049  0.44817153  0.51639805     0.05060
C94         C  0.01464541  0.46453838  0.52743951     0.03160
H95         H  0.99229593  0.41596762  0.52648736     0.08260
H96         H  0.02443914  0.48017002  0.52180686     0.07100
C97         C  0.84990847  0.55467225  0.69688857     0.03130
C98         C  0.83869901  0.56258639  0.69292322    -0.13020
C99         C  0.82351848  0.55852630  0.70935349     0.00630
C100        C  0.81988403  0.54626179  0.72942713    -0.11550
C101        C  0.83374753  0.54217251  0.73595301     0.03120
C102        C  0.84769127  0.54486734  0.71875443    -0.10970
H103        H  0.84248111  0.57244748  0.67766587     0.08710
H104        H  0.80809562  0.54264131  0.74212681     0.06240
H105        H  0.85807482  0.54108005  0.72324947     0.06090
C106        C  0.75117475  0.59673437  0.70044508     0.03130
C107        C  0.76365381  0.59041507  0.69528232    -0.13020
C108        C  0.77943826  0.59513560  0.71110683     0.00630
C109        C  0.78285750  0.60706528  0.73145974    -0.11550
C110        C  0.76827832  0.60989120  0.73899890     0.03120
C111        C  0.75325651  0.60597949  0.72273066    -0.10970
H112        H  0.76029584  0.58106223  0.67962608     0.08710
H113        H  0.79522877  0.61140443  0.74356642     0.06240
H114        H  0.74214866  0.60856149  0.72821216     0.06090
C115        C  0.85329431  0.55743412  0.87880225     0.03130
C116        C  0.84144831  0.56400288  0.88598937    -0.13020
C117        C  0.82817796  0.56370180  0.86948552     0.00630
C118        C  0.82686206  0.55680605  0.84587118    -0.11550
C119        C  0.83846628  0.55005564  0.83866273     0.03120
C120        C  0.85152305  0.55019698  0.85527126    -0.10970
H121        H  0.84286502  0.56969051  0.90410714     0.08710
H122        H  0.81716100  0.55722339  0.83284718     0.06240
H123        H  0.86102554  0.54561125  0.84954996     0.06090
C124        C  0.75386872  0.59857431  0.88313112     0.03130
C125        C  0.75419272  0.60472197  0.85930010    -0.13020
C126        C  0.76707804  0.60521799  0.84204179     0.00630
C127        C  0.77969732  0.59954819  0.84862470    -0.11550
C128        C  0.77952074  0.59326973  0.87216721     0.03120
C129        C  0.76682635  0.59307006  0.88955201    -0.10970
H130        H  0.74378613  0.60826457  0.85390579     0.08710
H131        H  0.78904654  0.59912630  0.83504955     0.06240
H132        H  0.76650904  0.58798207  0.90771216     0.06090
C133        C  0.31054419  0.89345445  0.38831017     0.03130
C134        C  0.29247062  0.87617238  0.39739679    -0.13020
C135        C  0.27569978  0.86435796  0.38217524     0.00630
C136        C  0.27733588  0.86925467  0.35767171    -0.11550
C137        C  0.29545261  0.88594353  0.34833900     0.03120
C138        C  0.31158866  0.89861664  0.36388574    -0.10970
H139        H  0.29160305  0.87163859  0.41599021     0.08710
H140        H  0.26484235  0.85936818  0.34556189     0.06240
H141        H  0.32555391  0.91163643  0.35656334     0.06090
C142        C  0.16986663  0.75531212  0.38731081     0.03130
C143        C  0.18705002  0.77313390  0.39683232    -0.13020
C144        C  0.19956959  0.78972128  0.38168509     0.00630
C145        C  0.19493153  0.78840244  0.35711139    -0.11550
C146        C  0.17778366  0.77079215  0.34742386     0.03120
C147        C  0.16511859  0.75431294  0.36268740    -0.10970
H148        H  0.19098780  0.77385931  0.41566912     0.08710
H149        H  0.20506022  0.80102716  0.34531222     0.06240
H150        H  0.15200192  0.74047251  0.35527109     0.06090
C151        C  0.31348404  0.89722916  0.20446273     0.03130
C152        C  0.31581383  0.89989471  0.22964290    -0.13020
C153        C  0.29926852  0.88779389  0.24495651     0.00630
C154        C  0.28052183  0.87259541  0.23524562    -0.11550
C155        C  0.27809778  0.86921864  0.21037699     0.03120
C156        C  0.29442293  0.88185212  0.19486021    -0.10970
H157        H  0.33051974  0.91120669  0.23732013     0.08710
H158        H  0.26793838  0.86270467  0.24723630     0.06240
H159        H  0.29249003  0.87928523  0.17556874     0.06090
C160        C  0.16981172  0.76220751  0.20301925     0.03130
C161        C  0.16506127  0.76025263  0.22764356    -0.13020
C162        C  0.17817367  0.77566118  0.24384421     0.00630
C163        C  0.19573860  0.79343558  0.23516124    -0.11550
C164        C  0.20043991  0.79578731  0.21052138     0.03120
C165        C  0.18747663  0.78012110  0.19438809    -0.10970
H166        H  0.15170843  0.74625808  0.23440087     0.08710
H167        H  0.20622269  0.80516953  0.24774977     0.06240
H168        H  0.19142589  0.78157369  0.17546119     0.06090
N169        N  0.45903477  0.04094837  0.61411448    -0.27290
N170        N  0.46422781  0.02909559  0.62127559    -0.35150
C171        C  0.46102881  0.01659155  0.60325212     0.01050
C172        C  0.45333949  0.02060117  0.58379941     0.07070
C173        C  0.45201668  0.03599060  0.59131750    -0.06030
H174        H  0.46638698  0.00716508  0.60324284     0.07740
H175        H  0.44892556  0.04473785  0.58005616     0.08940
Cu176      Cu  0.48337332  0.03554318  0.64962648     0.44170
Cu177      Cu  0.46821939  0.06709781  0.63264289     0.41990
Cu178      Cu  0.51490958  0.08709376  0.66696414     0.43880
N179        N  0.51340458  0.05006943  0.65808304    -0.34680
N180        N  0.52556066  0.06951087  0.66331373    -0.28930
C181        C  0.54486230  0.07578289  0.66067810    -0.05030
C182        C  0.54469324  0.05949713  0.65304337     0.07180
C183        C  0.52452380  0.04344681  0.65183155     0.00980
H184        H  0.55786645  0.09139697  0.66170128     0.08630
H185        H  0.51831420  0.02867473  0.64426091     0.07710
N186        N  0.49988356  0.10065085  0.66526703    -0.36130
N187        N  0.48309670  0.09349863  0.65280042    -0.28310
C188        C  0.47755915  0.10604420  0.65545185    -0.03550
C189        C  0.49149375  0.12177778  0.67029282     0.05060
C190        C  0.50540983  0.11788871  0.67621479     0.03160
H191        H  0.46434793  0.10384922  0.64722763     0.08260
H192        H  0.51853146  0.12687036  0.68773469     0.07100
N193        N  0.62103177  0.03425219  0.58179720    -0.27290
N194        N  0.60169201  0.02712087  0.58073052    -0.35150
C195        C  0.59318104  0.01479947  0.56158335     0.01050
C196        C  0.60772164  0.01387713  0.55020338     0.07070
C197        C  0.62525013  0.02646952  0.56337345    -0.06030
H198        H  0.57792293  0.00821051  0.55533596     0.07740
H199        H  0.64028911  0.03108611  0.55864822     0.08940
Cu200      Cu  0.58822955  0.03693763  0.60230313     0.44170
Cu201      Cu  0.64155559  0.05754080  0.60484019     0.41990
Cu202      Cu  0.62295306  0.08638498  0.62559334     0.43880
N203        N  0.57926220  0.05174637  0.62264429    -0.34680
N204        N  0.59211288  0.07043146  0.63050549    -0.28930
C205        C  0.58192690  0.07602739  0.64291349    -0.05030
C206        C  0.56166797  0.06001497  0.64287744     0.07180
C207        C  0.56050534  0.04487900  0.62983393     0.00980
H208        H  0.58879316  0.09060722  0.65140888     0.08630
H209        H  0.54702264  0.03006953  0.62557475     0.07710
N210        N  0.65246747  0.09571073  0.62916720    -0.36130
N211        N  0.65891559  0.08453055  0.62391299    -0.28310
C212        C  0.67763814  0.09347888  0.63311721    -0.03550
C213        C  0.68320634  0.11119373  0.64451402     0.05060
C214        C  0.66696542  0.11218832  0.64126724     0.03160
H215        H  0.68618552  0.08714916  0.63239866     0.08260
H216        H  0.66527223  0.12345136  0.64852037     0.07100
N217        N  0.59606797  0.98388754  0.49635549    -0.27290
N218        N  0.59439319  0.99814513  0.48842945    -0.35150
C219        C  0.60020068  0.01192813  0.50585134     0.01050
C220        C  0.60607369  0.00632587  0.52568179     0.07070
C221        C  0.60324048  0.98842984  0.51913239    -0.06030
H222        H  0.59805446  0.02383365  0.50514576     0.07740
H223        H  0.60418951  0.97840328  0.53086157     0.08940
Cu224      Cu  0.57745680  0.99495992  0.45890405     0.44170
Cu225      Cu  0.58387307  0.95696631  0.47756783     0.41990
Cu226      Cu  0.54458947  0.94586225  0.43408139     0.43880
N227        N  0.54915937  0.98403698  0.44588483    -0.34680
N228        N  0.53647130  0.96551191  0.43746995    -0.28930
C229        C  0.51761011  0.96075414  0.43775593    -0.05030
C230        C  0.51855569  0.97698844  0.44727171     0.07180
C231        C  0.53879016  0.99152939  0.45192577     0.00980
H232        H  0.50405573  0.94578247  0.43431277     0.08630
H233        H  0.54517014  0.00543611  0.46186680     0.07710
N234        N  0.55537098  0.92849558  0.43841432    -0.36130
N235        N  0.56917616  0.93211517  0.45445720    -0.28310
C236        C  0.57257284  0.91787464  0.45226780    -0.03550
C237        C  0.56041884  0.90479713  0.43390789     0.05060
C238        C  0.54976100  0.91201893  0.42555058     0.03160
H239        H  0.58346054  0.91738241  0.46283018     0.08260
H240        H  0.53904386  0.90601100  0.41078855     0.07100
N241        N  0.47102267  0.96761474  0.46645478    -0.27290
N242        N  0.48405878  0.98377448  0.47937961    -0.35150
C243        C  0.50291145  0.98984535  0.47403931     0.01050
C244        C  0.50165472  0.97679950  0.45693751     0.07070
C245        C  0.48120690  0.96281351  0.45257078    -0.06030
H246        H  0.51646636  0.00256774  0.48238595     0.07740
H247        H  0.47425329  0.95020057  0.44016082     0.08940
Cu248      Cu  0.47522039  0.99634738  0.50374558     0.44170
Cu249      Cu  0.44037736  0.95463219  0.46721083     0.41990
Cu250      Cu  0.42742401  0.98780581  0.49141383     0.43880
N251        N  0.46158783  0.00502786  0.52662953    -0.34680
N252        N  0.44460549  0.00303072  0.52170658    -0.28930
C253        C  0.43931676  0.00908438  0.54096883    -0.05030
C254        C  0.45351490  0.01474723  0.55887020     0.07180
C255        C  0.46737589  0.01199853  0.54919640     0.00980
H256        H  0.42548730  0.00806304  0.54242269     0.08630
H257        H  0.48042112  0.01434701  0.55812923     0.07710
N258        N  0.40942267  0.96386608  0.46805242    -0.36130
N259        N  0.41310372  0.95059367  0.46206727    -0.28310
C260        C  0.39758412  0.93580065  0.44899446    -0.03550
C261        C  0.38367815  0.94020786  0.44580454     0.05060
C262        C  0.39171708  0.95815913  0.45819246     0.03160
H263        H  0.39684243  0.92307239  0.44170265     0.08260
H264        H  0.38533729  0.96661582  0.45975246     0.07100
N265        N  0.46352369  0.04735749  0.97779350    -0.27290
N266        N  0.47006475  0.03666786  0.97050268    -0.35150
C267        C  0.46704900  0.02385419  0.98801754     0.01050
C268        C  0.45798997  0.02634938  0.00725773     0.07070
C269        C  0.45574623  0.04124508  0.00016683    -0.06030
H270        H  0.47312772  0.01506635  0.98782173     0.07740
H271        H  0.45123054  0.04878952  0.01148936     0.08940
Cu272      Cu  0.48990388  0.04471107  0.94250087     0.44170
Cu273      Cu  0.47143833  0.07345729  0.95988288     0.41990
Cu274      Cu  0.51970334  0.09658758  0.92762579     0.43880
N275        N  0.52007680  0.06048185  0.93420721    -0.34680
N276        N  0.53162888  0.08009229  0.92988231    -0.28930
C277        C  0.55115086  0.08706984  0.93244544    -0.05030
C278        C  0.55174112  0.07104228  0.93911886     0.07180
C279        C  0.53180017  0.05443244  0.93981759     0.00980
H280        H  0.56373842  0.10289116  0.93212657     0.08630
H281        H  0.52610529  0.03957925  0.94667684     0.07710
N282        N  0.50345079  0.10882758  0.92947459    -0.36130
N283        N  0.48595068  0.10049116  0.94079722    -0.28310
C284        C  0.47969289  0.11246147  0.93808850    -0.03550
C285        C  0.49400479  0.12907541  0.92458814     0.05060
C286        C  0.50879879  0.12628816  0.91940028     0.03160
H287        H  0.46579981  0.10932001  0.94540371     0.08260
H288        H  0.52238670  0.13615099  0.90890069     0.07100
N289        N  0.62949846  0.04753069  0.00995884    -0.27290
N290        N  0.61001962  0.03987620  0.01056174    -0.35150
C291        C  0.60131856  0.02676074  0.02895445     0.01050
C292        C  0.61590256  0.02586637  0.04029165     0.07070
C293        C  0.63364383  0.03931985  0.02791517    -0.06030
H294        H  0.58585745  0.01957843  0.03480038     0.07740
H295        H  0.64870636  0.04416233  0.03293479     0.08940
Cu296      Cu  0.59658736  0.04991425  0.98934246     0.44170
Cu297      Cu  0.64997753  0.07169889  0.98803899     0.41990
Cu298      Cu  0.63062881  0.09972432  0.96618593     0.43880
N299        N  0.58721085  0.06443105  0.96917189    -0.34680
N300        N  0.59971957  0.08319829  0.96142005    -0.28930
C301        C  0.58916702  0.08843627  0.94914470    -0.05030
C302        C  0.56904586  0.07208806  0.94913174     0.07180
C303        C  0.56834046  0.05714717  0.96201196     0.00980
H304        H  0.59569322  0.10298650  0.94074435     0.08630
H305        H  0.55507950  0.04218330  0.96621181     0.07710
N306        N  0.66020628  0.10924788  0.96257991    -0.36130
N307        N  0.66691203  0.09841231  0.96854337    -0.28310
C308        C  0.68542073  0.10704975  0.95890444    -0.03550
C309        C  0.69055518  0.12415022  0.94640174     0.05060
C310        C  0.67433298  0.12518942  0.94946243     0.03160
H311        H  0.69398244  0.10074046  0.95981148     0.08260
H312        H  0.67226765  0.13588378  0.94116107     0.07100
N313        N  0.60415694  0.99459233  0.09292441    -0.27290
N314        N  0.60165068  0.00818829  0.10126298    -0.35150
C315        C  0.60733858  0.02232660  0.08439194     0.01050
C316        C  0.61397493  0.01765623  0.06446203     0.07070
C317        C  0.61174303  0.99993176  0.07037498    -0.06030
H318        H  0.60461294  0.03381214  0.08548134     0.07740
H319        H  0.61343287  0.99055247  0.05834383     0.08940
Cu320      Cu  0.58380592  0.00359977  0.13031386     0.44170
Cu321      Cu  0.59262435  0.96748674  0.11099940     0.41990
Cu322      Cu  0.55184374  0.95415005  0.15375295     0.43880
N323        N  0.55529577  0.99190949  0.14306251    -0.34680
N324        N  0.54291486  0.97329348  0.15130923    -0.28930
C325        C  0.52401776  0.96847546  0.15210202    -0.05030
C326        C  0.52465264  0.98477235  0.14339829     0.07180
C327        C  0.54470295  0.99934234  0.13799187     0.00980
H328        H  0.51058710  0.95351881  0.15593268     0.08630
H329        H  0.55080565  0.01344216  0.12863174     0.07710
N330        N  0.56401225  0.93793294  0.14936821    -0.36130
N331        N  0.57835141  0.94236681  0.13370798    -0.28310
C332        C  0.58227364  0.92847688  0.13558954    -0.03550
C333        C  0.56988403  0.91474570  0.15331162     0.05060
C334        C  0.55857529  0.92125741  0.16164465     0.03160
H335        H  0.59341357  0.92846006  0.12496250     0.08260
H336        H  0.54727388  0.91442284  0.17575801     0.07100
N337        N  0.47690996  0.97754089  0.13099932    -0.27290
N338        N  0.48862580  0.99106364  0.11440522    -0.35150
C339        C  0.50744669  0.99601354  0.11673587     0.01050
C340        C  0.50747981  0.98486574  0.13552287     0.07070
C341        C  0.48785367  0.97320273  0.14409683    -0.06030
H342        H  0.52002315  0.00652416  0.10515508     0.07740
H343        H  0.48199818  0.96251718  0.15884903     0.08940
Cu344      Cu  0.47807046  0.00124713  0.08867356     0.44170
Cu345      Cu  0.44699579  0.96678554  0.13537912     0.41990
Cu346      Cu  0.42825103  0.98949994  0.09738806     0.43880
N347        N  0.46409965  0.00874877  0.06434209    -0.34680
N348        N  0.44635180  0.00549264  0.06796214    -0.28930
C349        C  0.44162439  0.01194241  0.04856234    -0.05030
C350        C  0.45698811  0.01918912  0.03185478     0.07180
C351        C  0.47093137  0.01690877  0.04239660     0.00980
H352        H  0.42758974  0.01042302  0.04627219     0.08630
H353        H  0.48491956  0.02066957  0.03456656     0.07710
N354        N  0.41182700  0.96900149  0.12489194    -0.36130
N355        N  0.41857487  0.96062895  0.13823984    -0.28310
C356        C  0.40397803  0.94746514  0.15360627    -0.03550
C357        C  0.38723008  0.94747168  0.14968853     0.05060
C358        C  0.39267711  0.96128451  0.13140051     0.03160
H359        H  0.40538252  0.93839070  0.16651129     0.08260
H360        H  0.38330344  0.96513613  0.12311766     0.07100
C361        C  0.86831587  0.32391422  0.69298451     0.03130
C362        C  0.85285529  0.30395067  0.68662375    -0.13020
C363        C  0.84089734  0.28980173  0.70456387     0.00630
C364        C  0.84430674  0.29573446  0.72885160    -0.11550
C365        C  0.85979716  0.31565561  0.73535834     0.03120
C366        C  0.87175629  0.32977528  0.71734672    -0.10970
H367        H  0.85053542  0.29932059  0.66787425     0.08710
H368        H  0.83537906  0.28463855  0.74278134     0.06240
H369        H  0.88405056  0.34507973  0.72228234     0.06090
C370        C  0.75337489  0.17024151  0.70135429     0.03130
C371        C  0.76717768  0.18972147  0.69165903    -0.13020
C372        C  0.78298571  0.20509230  0.70595940     0.00630
C373        C  0.78461726  0.20114638  0.73003562    -0.11550
C374        C  0.77060802  0.18218296  0.74008737     0.03120
C375        C  0.75559261  0.16648867  0.72550789    -0.10970
H376        H  0.76529027  0.19306088  0.67337534     0.08710
H377        H  0.79597612  0.21336846  0.74153687     0.06240
H378        H  0.74468544  0.15181160  0.73346209     0.06090
C379        C  0.87634718  0.33031427  0.87967288     0.03130
C380        C  0.87838491  0.33517776  0.85494599    -0.13020
C381        C  0.86457885  0.32060295  0.83821937     0.00630
C382        C  0.84867708  0.30144056  0.84634328    -0.11550
C383        C  0.84666148  0.29652514  0.87084135     0.03120
C384        C  0.86045526  0.31095909  0.88745365    -0.10970
H385        H  0.89089953  0.34994321  0.84873537     0.08710
H386        H  0.83833302  0.28999664  0.83339378     0.06240
H387        H  0.85912781  0.30697137  0.90636449     0.06090
C388        C  0.75784196  0.17793201  0.88314498     0.03130
C389        C  0.75916550  0.17229017  0.85961262    -0.13020
C390        C  0.77344587  0.18681652  0.84338063     0.00630
C391        C  0.78778967  0.20651998  0.85132726    -0.11550
C392        C  0.78709114  0.21225046  0.87485577     0.03120
C393        C  0.77187698  0.19808950  0.89062987    -0.10970
H394        H  0.74807614  0.15700747  0.85333937     0.08710
H395        H  0.79866390  0.21782398  0.83861999     0.06240
H396        H  0.77068040  0.20286065  0.90839089     0.06090
N397        N  0.09531649  0.53439078  0.14028550    -0.27290
N398        N  0.07543279  0.52163328  0.14228362    -0.35150
C399        C  0.06720671  0.53185749  0.14126154     0.01050
C400        C  0.08260153  0.55208955  0.13906994     0.07070
C401        C  0.10031358  0.55330616  0.13871231    -0.06030
H402        H  0.05111745  0.52491832  0.14056942     0.07740
H403        H  0.11546129  0.56668349  0.13553658     0.08940
Cu404      Cu  0.05943591  0.49083721  0.13960814     0.44170
Cu405      Cu  0.11367993  0.52452247  0.13577798     0.41990
Cu406      Cu  0.08474086  0.47015016  0.12202991     0.43880
N407        N  0.04702033  0.46749781  0.11545364    -0.34680
N408        N  0.05687545  0.46033831  0.10717220    -0.28930
C409        C  0.04872885  0.45124184  0.08575742    -0.05030
C410        C  0.03311916  0.45298571  0.08047333     0.07180
C411        C  0.03254055  0.46332801  0.09974704     0.00980
H412        H  0.05548026  0.44644045  0.07346001     0.08630
H413        H  0.02436270  0.47005971  0.10046973     0.07710
N414        N  0.11421026  0.48773434  0.13549825    -0.36130
N415        N  0.12539633  0.50764390  0.13718081    -0.28310
C416        C  0.14417548  0.51435371  0.14417995    -0.03550
C417        C  0.14475180  0.49788024  0.14841030     0.05060
C418        C  0.12529438  0.48127327  0.14275266     0.03160
H419        H  0.15631489  0.53015840  0.14645420     0.08260
H420        H  0.11933883  0.46550051  0.14438231     0.07100
N421        N  0.08351614  0.59700852  0.13352093    -0.27290
N422        N  0.06798426  0.58437791  0.11942626    -0.35150
C423        C  0.06527120  0.56645545  0.11942554     0.01050
C424        C  0.08005531  0.56809581  0.13380814     0.07070
C425        C  0.09144328  0.58765970  0.14237678    -0.06030
H426        H  0.05367112  0.55333595  0.10929421     0.07740
H427        H  0.10422966  0.59447087  0.15454189     0.08940
Cu428      Cu  0.05221021  0.59258924  0.09946571     0.44170
Cu429      Cu  0.09269738  0.62607122  0.14056129     0.41990
Cu430      Cu  0.07093294  0.64518720  0.10308808     0.43880
N431        N  0.04104575  0.60541003  0.07889422    -0.34680
N432        N  0.04775891  0.62456775  0.08043918    -0.28930
C433        C  0.03895446  0.62858748  0.06318555    -0.05030
C434        C  0.02605083  0.61112763  0.05019179     0.07180
C435        C  0.02793451  0.59680990  0.06041310     0.00980
H436        H  0.04302308  0.64350779  0.05907124     0.08630
H437        H  0.02144688  0.58171304  0.05373387     0.07710
N438        N  0.09361809  0.66249371  0.12795757    -0.36130
N439        N  0.10056561  0.65511588  0.14268510    -0.28310
C440        C  0.11434058  0.66985106  0.15748119    -0.03550
C441        C  0.11658509  0.68752702  0.15138673     0.05060
C442        C  0.10320985  0.68228331  0.13253488     0.03160
H443        H  0.12238242  0.66788939  0.17139379     0.08260
H444        H  0.10071446  0.69211634  0.12271370     0.07100
N445        N  0.99589551  0.60049432  0.99666470    -0.27290
N446        N  0.01116477  0.60071807  0.98797489    -0.35150
C447        C  0.02489383  0.60629704  0.00538901     0.01050
C448        C  0.01815938  0.60992135  0.02606022     0.07070
C449        C  0.99970868  0.60612295  0.02004030    -0.06030
H450        H  0.03760682  0.60539210  0.00390907     0.07740
H451        H  0.98898953  0.60547902  0.03227582     0.08940
Cu452      Cu  0.00982676  0.58563287  0.95765628     0.44170
Cu453      Cu  0.96890520  0.58806087  0.97773584     0.41990
Cu454      Cu  0.96095016  0.55105889  0.93374352     0.43880
N455        N  0.99985693  0.55718448  0.94683811    -0.34680
N456        N  0.98146189  0.54412008  0.93822243    -0.28930
C457        C  0.97703322  0.52549936  0.93946454    -0.05030
C458        C  0.99326724  0.52690140  0.94990887     0.07180
C459        C  0.00754989  0.54722662  0.95417899     0.00980
H460        H  0.96219392  0.51180253  0.93586787     0.08630
H461        H  0.02137035  0.55397076  0.96447697     0.07710
N462        N  0.94190303  0.55990525  0.93770741    -0.36130
N463        N  0.94447264  0.57314577  0.95390939    -0.28310
C464        C  0.92960280  0.57565028  0.95126752    -0.03550
C465        C  0.91716922  0.56339594  0.93251866     0.05060
C466        C  0.92544048  0.55367133  0.92437879     0.03160
H467        H  0.92826162  0.58601835  0.96174380     0.08260
H468        H  0.92020155  0.54324469  0.90938927     0.07100
N469        N  0.00549277  0.44132317  0.02400186    -0.27290
N470        N  0.01429932  0.46104156  0.02579288    -0.35150
C471        C  0.02613024  0.46806214  0.04548474     0.01050
C472        C  0.02504121  0.45225490  0.05647492     0.07070
C473        C  0.01185348  0.43550598  0.04243566    -0.06030
H474        H  0.03430696  0.48346704  0.05193066     0.07740
H475        H  0.00621611  0.42003097  0.04623323     0.08940
Cu476      Cu  0.00942030  0.47862999  0.00382575     0.44170
Cu477      Cu  0.98280205  0.42210311  0.99917613     0.41990
Cu478      Cu  0.96528292  0.44834614  0.97088311     0.43880
N479        N  0.99887899  0.49101286  0.98116114    -0.34680
N480        N  0.98175286  0.47894521  0.96937054    -0.28930
C481        C  0.97762403  0.48983405  0.95612122    -0.05030
C482        C  0.99290588  0.50994902  0.95965416     0.07180
C483        C  0.00623755  0.51029141  0.97571634     0.00980
H484        H  0.96433429  0.48347438  0.94489786     0.08630
H485        H  0.01993057  0.52346981  0.98321320     0.07710
N486        N  0.95233632  0.41852769  0.96529358    -0.36130
N487        N  0.95859360  0.40824527  0.97488118    -0.28310
C488        C  0.94732051  0.38936775  0.96560803    -0.03550
C489        C  0.93352330  0.38811993  0.94946546     0.05060
C490        C  0.93730354  0.40690057  0.94974536     0.03160
H491        H  0.94921382  0.37762127  0.96994112     0.08260
H492        H  0.93003226  0.41197933  0.93886167     0.07100
N493        N  0.60381692  0.62475929  0.50535445    -0.27290
N494        N  0.59238148  0.60521792  0.50049995    -0.35150
C495        C  0.59637573  0.59558534  0.51634668     0.01050
C496        C  0.61111378  0.60957966  0.53204750     0.07070
C497        C  0.61554288  0.62803379  0.52464412    -0.06030
H498        H  0.58758100  0.57931437  0.51798605     0.07740
H499        H  0.62493360  0.64231574  0.53402731     0.08940
Cu500      Cu  0.56734663  0.59104266  0.47843982     0.44170
Cu501      Cu  0.59906644  0.64432880  0.48782575     0.41990
Cu502      Cu  0.54665555  0.61725973  0.46272510     0.43880
N503        N  0.53755019  0.57629799  0.46830201    -0.34680
N504        N  0.52910848  0.58569208  0.46349145    -0.28930
C505        C  0.50897441  0.57171392  0.46071731    -0.05030
C506        C  0.50474858  0.55269982  0.46413394     0.07180
C507        C  0.52326885  0.55629723  0.46883310     0.00980
H508        H  0.49818859  0.57514478  0.45731936     0.08630
H509        H  0.52609990  0.54526895  0.47351379     0.07710
N510        N  0.56951214  0.64819587  0.45928449    -0.36130
N511        N  0.58835642  0.65773134  0.46722782    -0.28310
C512        C  0.59941978  0.67676620  0.45853853    -0.03550
C513        C  0.58698188  0.67940417  0.44459502     0.05060
C514        C  0.56813123  0.66103370  0.44575918     0.03160
H515        H  0.61555405  0.68755147  0.46117468     0.08260
H516        H  0.55460764  0.65691903  0.43623788     0.07100
N517        N  0.41257999  0.43140603  0.50424021    -0.27290
N518        N  0.43240026  0.44360430  0.50120267    -0.35150
C519        C  0.44135520  0.43862220  0.51685503     0.01050
C520        C  0.42666171  0.42250030  0.53061912     0.07070
C521        C  0.40848468  0.41827570  0.52217541    -0.06030
H522        H  0.45752172  0.44761101  0.51994423     0.07740
H523        H  0.39370657  0.40801654  0.53021185     0.08940
Cu524      Cu  0.44749578  0.47035383  0.48199003     0.44170
Cu525      Cu  0.39331307  0.43670892  0.48676904     0.41990
Cu526      Cu  0.42058163  0.49038558  0.46694923     0.43880
N527        N  0.46188067  0.50013422  0.47160685    -0.34680
N528        N  0.45207703  0.50814877  0.46677956    -0.28930
C529        C  0.46568047  0.52811593  0.46264998    -0.05030
C530        C  0.48494967  0.53276711  0.46515920     0.07180
C531        C  0.48187395  0.51462225  0.47080540     0.00980
H532        H  0.46184212  0.53849701  0.45868060     0.08630
H533        H  0.49330604  0.51219566  0.47487730     0.07710
N534        N  0.38977966  0.46795250  0.46245037    -0.36130
N535        N  0.38014727  0.44858816  0.46798139    -0.28310
C536        C  0.36139509  0.43823325  0.45833653    -0.03550
C537        C  0.35911499  0.45173431  0.44633941     0.05060
C538        C  0.37731758  0.47039733  0.44972289     0.03160
H539        H  0.35063858  0.42196653  0.45890473     0.08260
H540        H  0.38170294  0.48461630  0.44200936     0.07100
N541        N  0.43867664  0.40346370  0.58207752    -0.27290
N542        N  0.44899493  0.42298163  0.58689507    -0.35150
C543        C  0.44459142  0.43191626  0.57049565     0.01050
C544        C  0.43076914  0.41753799  0.55437523     0.07070
C545        C  0.42727400  0.39953659  0.56217677    -0.06030
H546        H  0.45239960  0.44809736  0.56905162     0.07740
H547        H  0.41859804  0.38515501  0.55289723     0.08940
Cu548      Cu  0.47284518  0.43862351  0.61063555     0.44170
Cu549      Cu  0.44388724  0.38478831  0.60142596     0.41990
Cu550      Cu  0.49149259  0.41490299  0.63880737     0.43880
N551        N  0.50140512  0.45488933  0.62547732    -0.34680
N552        N  0.50916654  0.44620214  0.63561594    -0.28930
C553        C  0.52879332  0.46055949  0.64094905    -0.05030
C554        C  0.53341779  0.47912470  0.63362204     0.07180
C555        C  0.51564361  0.47485143  0.62395235     0.00980
H556        H  0.53905455  0.45763307  0.64868921     0.08630
H557        H  0.51340081  0.48533499  0.61540895     0.07710
N558        N  0.47046385  0.38362349  0.63915195    -0.36130
N559        N  0.45401540  0.37263364  0.62558805    -0.28310
C560        C  0.44526666  0.35288798  0.63025632    -0.03550
C561        C  0.45669449  0.35149019  0.64761951     0.05060
C562        C  0.47233510  0.37126078  0.65289106     0.03160
H563        H  0.43185172  0.34049624  0.62130686     0.08260
H564        H  0.48461621  0.37632806  0.66544257     0.07100
N565        N  0.62787003  0.59440558  0.58233789    -0.27290
N566        N  0.60823340  0.58408536  0.58650895    -0.35150
C567        C  0.59994138  0.58963996  0.57060000     0.01050
C568        C  0.61497682  0.60429782  0.55566843     0.07070
C569        C  0.63257884  0.60697629  0.56354406    -0.06030
H570        H  0.58382010  0.58212897  0.56852496     0.07740
H571        H  0.64722705  0.61587189  0.55485011     0.08940
Cu572      Cu  0.59223187  0.55938689  0.60909854     0.44170
Cu573      Cu  0.64582064  0.58782234  0.60044380     0.41990
Cu574      Cu  0.61713491  0.54236889  0.64051997     0.43880
N575        N  0.57680771  0.53117096  0.62485606    -0.34680
N576        N  0.58584351  0.52417941  0.63609098    -0.28930
C577        C  0.57183965  0.50456501  0.64170714    -0.05030
C578        C  0.55314083  0.49913747  0.63354092     0.07180
C579        C  0.55695530  0.51643061  0.62303950     0.00980
H580        H  0.57511293  0.49486306  0.65032538     0.08630
H581        H  0.54625588  0.51799815  0.61373589     0.07710
N582        N  0.64849672  0.56323582  0.63946761    -0.36130
N583        N  0.65875291  0.57844412  0.62408719    -0.28310
C584        C  0.67868840  0.58765110  0.62768983    -0.03550
C585        C  0.68118559  0.57816624  0.64662719     0.05060
C586        C  0.66165969  0.56286995  0.65366773     0.03160
H587        H  0.69047232  0.60043296  0.61732812     0.08260
H588        H  0.65727148  0.55221096  0.66820498     0.07100
C589        C  0.45404771  0.28881376  0.70037588     0.03130
C590        C  0.45772854  0.27518257  0.69087835    -0.13020
C591        C  0.45956248  0.26268757  0.70636340     0.00630
C592        C  0.45717831  0.26346822  0.73128337    -0.11550
C593        C  0.45346902  0.27687105  0.74098129     0.03120
C594        C  0.45198044  0.28957722  0.72550960    -0.10970
H595        H  0.45971719  0.27471135  0.67162559     0.08710
H596        H  0.45892133  0.25407335  0.74329423     0.06240
H597        H  0.44973388  0.30040126  0.73305598     0.06090
C598        C  0.49287280  0.18841316  0.70775092     0.03130
C599        C  0.49847596  0.19272201  0.73212060    -0.13020
C600        C  0.49821944  0.20770489  0.74397764     0.00630
C601        C  0.49299239  0.21879530  0.73121116    -0.11550
C602        C  0.48686132  0.21427984  0.70707107     0.03120
C603        C  0.48691778  0.19912930  0.69517357    -0.10970
H604        H  0.50204185  0.18373675  0.74211732     0.08710
H605        H  0.49229810  0.23005596  0.74062010     0.06240
H606        H  0.48184232  0.19532094  0.67662747     0.06090
C607        C  0.45513745  0.29367905  0.88423083     0.03130
C608        C  0.45044723  0.29127841  0.85939793    -0.13020
C609        C  0.45262621  0.27837723  0.84523412     0.00630
C610        C  0.45784337  0.26658979  0.85631055    -0.11550
C611        C  0.46203024  0.26837871  0.88106568     0.03120
C612        C  0.46093194  0.28209844  0.89492129    -0.10970
H613        H  0.44644784  0.30044229  0.85080880     0.08710
H614        H  0.45980691  0.25682152  0.84534704     0.06240
H615        H  0.46525331  0.28424733  0.91377459     0.06090
C616        C  0.49793412  0.19657578  0.88519129     0.03130
C617        C  0.50333877  0.19980901  0.86070963    -0.13020
C618        C  0.50315771  0.21431837  0.84756835     0.00630
C619        C  0.49913443  0.22676040  0.85936257    -0.11550
C620        C  0.49371056  0.22377449  0.88380420     0.03120
C621        C  0.49314603  0.20865410  0.89679854    -0.10970
H622        H  0.50603989  0.18987625  0.85142130     0.08710
H623        H  0.49830626  0.23751460  0.84891580     0.06240
H624        H  0.48809714  0.20567541  0.91539012     0.06090
C625        C  0.55762233  0.84165877  0.38295540     0.03130
C626        C  0.55199236  0.84079604  0.35882899    -0.13020
C627        C  0.55274874  0.82824957  0.34233637     0.00630
C628        C  0.55864544  0.81607460  0.35026093    -0.11550
C629        C  0.56399769  0.81650541  0.37447104     0.03120
C630        C  0.56346208  0.82936222  0.39085999    -0.10970
H631        H  0.54803463  0.85068790  0.35260267     0.08710
H632        H  0.55984364  0.80682151  0.33734846     0.06240
H633        H  0.56811024  0.83023030  0.40940996     0.06090
C634        C  0.60272035  0.74525444  0.38354513     0.03130
C635        C  0.59479285  0.75587483  0.39116624    -0.13020
C636        C  0.59585991  0.77031207  0.37605931     0.00630
C637        C  0.60406733  0.77352992  0.35291002    -0.11550
C638        C  0.61140311  0.76272470  0.34475822     0.03120
C639        C  0.61160122  0.74932713  0.36045205    -0.10970
H640        H  0.58741307  0.75261658  0.40854594     0.08710
H641        H  0.60362489  0.78363396  0.34063766     0.06240
H642        H  0.61739200  0.74105417  0.35404357     0.06090
C643        C  0.56317269  0.84848545  0.20127948     0.03130
C644        C  0.55289841  0.84475506  0.22321660    -0.13020
C645        C  0.55031179  0.83008165  0.23905449     0.00630
C646        C  0.55547355  0.81734390  0.23128541    -0.11550
C647        C  0.56836308  0.82258857  0.21134887     0.03120
C648        C  0.57194035  0.83820733  0.19604854    -0.10970
H649        H  0.54841867  0.85437097  0.22878287     0.08710
H650        H  0.55229957  0.80524468  0.24314965     0.06240
H651        H  0.58204267  0.84300785  0.18080016     0.06090
C652        C  0.60591557  0.74984682  0.20256996     0.03130
C653        C  0.61429631  0.75139954  0.22535147    -0.13020
C654        C  0.61868017  0.76673898  0.24132291     0.00630
C655        C  0.61696698  0.78191485  0.23324110    -0.11550
C656        C  0.60529061  0.77882475  0.21270082     0.03120
C657        C  0.60032210  0.76288500  0.19693570    -0.10970
H658        H  0.61595688  0.73977298  0.23132926     0.08710
H659        H  0.62171031  0.79445353  0.24521684     0.06240
H660        H  0.59141247  0.75990648  0.18094838     0.06090
N661        N  0.60701365  0.62775466  0.08567942    -0.27290
N662        N  0.59761227  0.60841753  0.09088409    -0.35150
C663        C  0.60318149  0.60006138  0.07510090     0.01050
C664        C  0.61687089  0.61471202  0.05908660     0.07070
C665        C  0.61893162  0.63216423  0.06622512    -0.06030
H666        H  0.59607239  0.58399150  0.07372453     0.07740
H667        H  0.62683414  0.64636834  0.05659212     0.08940
Cu668      Cu  0.57339724  0.59239698  0.11416159     0.44170
Cu669      Cu  0.59984078  0.64543233  0.10348261     0.41990
Cu670      Cu  0.55394880  0.61611864  0.14294811     0.43880
N671        N  0.54489240  0.57621541  0.12930881    -0.34680
N672        N  0.53695901  0.58472316  0.13955769    -0.28930
C673        C  0.51738801  0.57015471  0.14492108    -0.05030
C674        C  0.51297257  0.55166969  0.13754878     0.07180
C675        C  0.53082019  0.55620060  0.12781403     0.00980
H676        H  0.50700208  0.57288132  0.15273098     0.08630
H677        H  0.53321830  0.54583920  0.11922654     0.07710
N678        N  0.57424127  0.64761320  0.14172414    -0.36130
N679        N  0.58980791  0.65806236  0.12680655    -0.28310
C680        C  0.59878501  0.67792885  0.13051650    -0.03550
C681        C  0.58873166  0.68020231  0.14897375     0.05060
C682        C  0.57334277  0.66059937  0.15562815     0.03160
H683        H  0.61183969  0.68984529  0.12061036     0.08260
H684        H  0.56232673  0.65605505  0.16979229     0.07100
N685        N  0.41906314  0.43487457  0.08794788    -0.27290
N686        N  0.43879962  0.44584028  0.09177239    -0.35150
C687        C  0.44742749  0.44113796  0.07524684     0.01050
C688        C  0.43258889  0.42646199  0.06012434     0.07070
C689        C  0.41468221  0.42280363  0.06865251    -0.06030
H690        H  0.46361167  0.44936869  0.07282077     0.07740
H691        H  0.39999756  0.41365930  0.06005237     0.08940
Cu692      Cu  0.45464199  0.47071054  0.11422859     0.44170
Cu693      Cu  0.40042196  0.44011673  0.10710663     0.41990
Cu694      Cu  0.42941264  0.48754916  0.14419478     0.43880
N695        N  0.46999100  0.49925217  0.12923663    -0.34680
N696        N  0.46072778  0.50618771  0.13999656    -0.28930
C697        C  0.47453205  0.52590769  0.14537607    -0.05030
C698        C  0.49336484  0.53149540  0.13752672     0.07180
C699        C  0.48981264  0.51415478  0.12745503     0.00980
H700        H  0.47103876  0.53556344  0.15363021     0.08630
H701        H  0.50067947  0.51264661  0.11851040     0.07710
N702        N  0.39809845  0.46617929  0.14427972    -0.36130
N703        N  0.38756915  0.44986408  0.13048109    -0.28310
C704        C  0.36766167  0.44086959  0.13435768    -0.03550
C705        C  0.36559532  0.45193004  0.15153619     0.05060
C706        C  0.38521598  0.46767048  0.15751539     0.03160
H707        H  0.35561015  0.42751672  0.12497600     0.08260
H708        H  0.38982879  0.47974836  0.17017932     0.07100
N709        N  0.44436883  0.40853611  0.00741702    -0.27290
N710        N  0.45592496  0.42830284  0.00418659    -0.35150
C711        C  0.45173469  0.43707589  0.02109146     0.01050
C712        C  0.43677025  0.42229762  0.03592450     0.07070
C713        C  0.43237747  0.40424552  0.02680087    -0.06030
H714        H  0.46050939  0.45323140  0.02396906     0.07740
H715        H  0.42279487  0.38947809  0.03504302     0.08940
Cu716      Cu  0.48118583  0.44363197  0.98259666     0.44170
Cu717      Cu  0.44949094  0.39013607  0.98740341     0.41990
Cu718      Cu  0.50307407  0.41913046  0.96470615     0.43880
N719        N  0.51060254  0.45930404  0.97067787    -0.34680
N720        N  0.51946946  0.45057286  0.96453599    -0.28930
C721        C  0.53909812  0.46510927  0.95942587    -0.05030
C722        C  0.54256362  0.48378981  0.96286873     0.07180
C723        C  0.52414021  0.47942215  0.96998862     0.00980
H724        H  0.55009665  0.46231439  0.95433839     0.08630
H725        H  0.52087881  0.49007016  0.97502354     0.07710
N726        N  0.48088659  0.38822327  0.96015989    -0.36130
N727        N  0.46153967  0.37826141  0.96614450    -0.28310
C728        C  0.45126720  0.35975215  0.95595208    -0.03550
C729        C  0.46478830  0.35781184  0.94329015     0.05060
C730        C  0.48341604  0.37607906  0.94685470     0.03160
H731        H  0.43501926  0.34883112  0.95693307     0.08260
H732        H  0.49775627  0.38064979  0.93927313     0.07100
N733        N  0.63470351  0.60169711  0.00756451    -0.27290
N734        N  0.61495797  0.59063904  0.00374907    -0.35150
C735        C  0.60624652  0.59531094  0.02019284     0.01050
C736        C  0.62104845  0.61011818  0.03518228     0.07070
C737        C  0.63900458  0.61381889  0.02677480    -0.06030
H738        H  0.59005691  0.58706825  0.02257480     0.07740
H739        H  0.65371652  0.62319543  0.03527002     0.08940
Cu740      Cu  0.59923476  0.56582007  0.98132731     0.44170
Cu741      Cu  0.65359740  0.59688551  0.98813196     0.41990
Cu742      Cu  0.62480637  0.54971666  0.95093982     0.43880
N743        N  0.58432290  0.53696301  0.96757954    -0.34680
N744        N  0.59382504  0.53021856  0.95700421    -0.28930
C745        C  0.58050094  0.51017183  0.95307414    -0.05030
C746        C  0.56171810  0.50421759  0.96157121     0.07180
C747        C  0.56478259  0.52164124  0.97055021     0.00980
H748        H  0.58429062  0.50061933  0.94522953     0.08630
H749        H  0.55385483  0.52294513  0.97970725     0.07710
N750        N  0.65582980  0.57198339  0.94917621    -0.36130
N751        N  0.66645994  0.58804162  0.96333150    -0.28310
C752        C  0.68629390  0.59764087  0.95825363    -0.03550
C753        C  0.68818749  0.58731005  0.93979964     0.05060
C754        C  0.66850199  0.57135714  0.93439675     0.03160
H755        H  0.69841753  0.61096503  0.96759694     0.08260
H756        H  0.66369886  0.55974028  0.92097069     0.07100
C757        C  0.29638182  0.44222397  0.38425724     0.03130
C758        C  0.28410007  0.44785935  0.39329879    -0.13020
C759        C  0.27031380  0.44792041  0.37809144     0.00630
C760        C  0.26964778  0.44355177  0.35356604    -0.11550
C761        C  0.28213501  0.43861361  0.34415942     0.03120
C762        C  0.29466966  0.43690107  0.35968267    -0.10970
H763        H  0.28550187  0.45254532  0.41191981     0.08710
H764        H  0.26000155  0.44491950  0.34150642     0.06240
H765        H  0.30404627  0.43269262  0.35228070     0.06090
C766        C  0.19381874  0.47956081  0.38443918     0.03130
C767        C  0.20599617  0.47388072  0.39330015    -0.13020
C768        C  0.21881309  0.47279994  0.37754439     0.00630
C769        C  0.21904709  0.47693733  0.35296096    -0.11550
C770        C  0.20718600  0.48289379  0.34392423     0.03120
C771        C  0.19489384  0.48459885  0.35993039    -0.10970
H772        H  0.20517598  0.46991910  0.41213577     0.08710
H773        H  0.22835463  0.47523151  0.34071908     0.06240
H774        H  0.18556940  0.48910114  0.35318877     0.06090
C775        C  0.29915457  0.44534248  0.20042116     0.03130
C776        C  0.29864545  0.44153547  0.22526934    -0.13020
C777        C  0.28504528  0.44177922  0.24046910     0.00630
C778        C  0.27207081  0.44608999  0.23092949    -0.11550
C779        C  0.27246849  0.45018972  0.20632164     0.03120
C780        C  0.28588009  0.44958049  0.19095588    -0.10970
H781        H  0.30922792  0.43895698  0.23288901     0.08710
H782        H  0.26209245  0.44699602  0.24292489     0.06240
H783        H  0.28635758  0.45288904  0.17193849     0.06090
C784        C  0.20134185  0.48866489  0.19891284     0.03130
C785        C  0.19965491  0.48974612  0.22407319    -0.13020
C786        C  0.20987562  0.48528134  0.24003246     0.00630
C787        C  0.22096523  0.47856855  0.23083488    -0.11550
C788        C  0.22270179  0.47719125  0.20592932     0.03120
C789        C  0.21353588  0.48294579  0.18993693    -0.10970
H790        H  0.19025338  0.49398104  0.23133187     0.08710
H791        H  0.22831870  0.47439211  0.24314185     0.06240
H792        H  0.21555268  0.48254051  0.17069102     0.06090
C793        C  0.26791297  0.47701519  0.19448786    -0.01850
C794        C  0.25947915  0.45634091  0.19792586     0.07830
C795        C  0.23824904  0.44219258  0.19875384    -0.01960
C796        C  0.22575101  0.44890046  0.19881145    -0.01970
C797        C  0.23442085  0.46971628  0.19748465     0.07960
C798        C  0.25533588  0.48360352  0.19379423    -0.02160
Br799      Br  0.26685828  0.51197440  0.19050313    -0.00710
Br800      Br  0.29672050  0.49687603  0.19433093    -0.00780
Br801      Br  0.19689844  0.42985468  0.20298904    -0.00740
Br802      Br  0.22646917  0.41378100  0.20207292    -0.00720
C803        C  0.18918174  0.47322436  0.30380318    -0.01850
C804        C  0.20703725  0.48602335  0.31747000     0.07830
C805        C  0.22533727  0.50028439  0.30539084    -0.01960
C806        C  0.22608914  0.50061950  0.28000597    -0.01970
C807        C  0.20851868  0.48683274  0.26649379     0.07960
C808        C  0.18995560  0.47358871  0.27843715    -0.02160
Br809      Br  0.16576796  0.45464380  0.26011425    -0.00710
Br810      Br  0.16367836  0.45397682  0.31929018    -0.00780
Br811      Br  0.25128944  0.51991282  0.26369343    -0.00740
Br812      Br  0.24944694  0.51951215  0.32360231    -0.00720
C813        C  0.27107408  0.42087069  0.30414709    -0.01850
C814        C  0.28423416  0.43855242  0.31767969     0.07830
C815        C  0.29813569  0.45698054  0.30574970    -0.01960
C816        C  0.29921561  0.45763798  0.28045623    -0.01970
C817        C  0.28585044  0.44006692  0.26689773     0.07960
C818        C  0.27177773  0.42165985  0.27872954    -0.02160
Br819      Br  0.25298654  0.39783729  0.26001813    -0.00710
Br820      Br  0.25135736  0.39597549  0.32050869    -0.00780
Br821      Br  0.31824373  0.48291530  0.26420189    -0.00740
Br822      Br  0.31442081  0.48177289  0.32390322    -0.00720
C823        C  0.26544851  0.47461792  0.38862234    -0.01850
C824        C  0.25730131  0.45395179  0.38649784     0.07830
C825        C  0.23613489  0.43940611  0.38672637    -0.01960
C826        C  0.22320440  0.44557826  0.38619818    -0.01970
C827        C  0.23145053  0.46630439  0.38576877     0.07960
C828        C  0.25248480  0.48077256  0.38836842    -0.02160
Br829      Br  0.26351119  0.50909544  0.38956592    -0.00710
Br830      Br  0.29438386  0.49458366  0.38910980    -0.00780
Br831      Br  0.19432653  0.42576747  0.38347482    -0.00740
Br832      Br  0.22500364  0.41104719  0.38566185    -0.00720
C833        C  0.33100006  0.43042658  0.17101016    -0.01850
C834        C  0.34687770  0.44898456  0.16077123     0.07830
C835        C  0.34571576  0.46559593  0.16127473    -0.01960
C836        C  0.33030841  0.46447848  0.17436048    -0.01970
C837        C  0.31459143  0.44611076  0.18499672     0.07960
C838        C  0.31463362  0.42887768  0.18246023    -0.02160
Br839      Br  0.29233689  0.40315006  0.19498110    -0.00710
Br840      Br  0.33214087  0.40743631  0.17106456    -0.00780
Br841      Br  0.33244648  0.48895910  0.17977781    -0.00740
Br842      Br  0.36481457  0.48989615  0.14326375    -0.00720
C843        C  0.57784373  0.70142434  0.16503085    -0.01850
C844        C  0.59354954  0.69922824  0.16015259     0.07830
C845        C  0.61355861  0.71483175  0.16722149    -0.01960
C846        C  0.61762606  0.73212685  0.17913855    -0.01970
C847        C  0.60163643  0.73332550  0.18604579     0.07960
C848        C  0.58167943  0.71785527  0.17886454    -0.02160
Br849      Br  0.55914507  0.71798839  0.18949345    -0.00710
Br850      Br  0.55105280  0.68246756  0.15192933    -0.00780
Br851      Br  0.64534703  0.75437709  0.18596200    -0.00740
Br852      Br  0.63545330  0.71215501  0.16289159    -0.00720
C853        C  0.58655043  0.80997778  0.23134893    -0.01850
C854        C  0.57986611  0.81341386  0.20969764     0.07830
C855        C  0.58297794  0.80643599  0.18791023    -0.01960
C856        C  0.59324307  0.79707893  0.18835088    -0.01970
C857        C  0.59616136  0.79043236  0.21064416     0.07960
C858        C  0.59054514  0.79556518  0.23202306    -0.02160
Br859      Br  0.58417550  0.78083721  0.26203308    -0.00710
Br860      Br  0.59211045  0.82582878  0.26024296    -0.00780
Br861      Br  0.60412188  0.79497654  0.15854008    -0.00740
Br862      Br  0.57240940  0.80825955  0.15767233    -0.00720
C863        C  0.63335850  0.77683671  0.30767783    -0.01850
C864        C  0.61458046  0.76236489  0.31853141     0.07830
C865        C  0.59777271  0.74863094  0.30401029    -0.01960
C866        C  0.59978010  0.74891650  0.27885257    -0.01970
C867        C  0.61844430  0.76374226  0.26777495     0.07960
C868        C  0.63524480  0.77766082  0.28229557    -0.02160
Br869      Br  0.66053408  0.79824139  0.26729151    -0.00710
Br870      Br  0.65596151  0.79632495  0.32759177    -0.00780
Br871      Br  0.57605280  0.73007646  0.25969483    -0.00740
Br872      Br  0.57125399  0.73093077  0.31834740    -0.00720
C873        C  0.56574613  0.84705878  0.30353656    -0.01850
C874        C  0.55020921  0.82992783  0.31621106     0.07830
C875        C  0.53318029  0.81403156  0.30365617    -0.01960
C876        C  0.53219072  0.81481638  0.27831577    -0.01970
C877        C  0.54822425  0.83150950  0.26545581     0.07960
C878        C  0.56475025  0.84793320  0.27831741    -0.02160
Br879      Br  0.58740601  0.87091441  0.26158669    -0.00710
Br880      Br  0.58949896  0.86860341  0.32049202    -0.00780
Br881      Br  0.50924735  0.79277039  0.26101946    -0.00740
Br882      Br  0.51156722  0.79096441  0.32120577    -0.00720
C883        C  0.60017681  0.80242811  0.38602171    -0.01850
C884        C  0.58714505  0.78131768  0.38292680     0.07830
C885        C  0.56607252  0.77159799  0.38154504    -0.01960
C886        C  0.55828550  0.78315486  0.38108551    -0.01970
C887        C  0.57154591  0.80444225  0.38155956     0.07960
C888        C  0.59245739  0.81401148  0.38506330    -0.02160
Br889      Br  0.61092148  0.84304888  0.38602168    -0.00710
Br890      Br  0.62886109  0.81550335  0.39002006    -0.00780
Br891      Br  0.52949550  0.76994489  0.37853106    -0.00740
Br892      Br  0.54803737  0.74263894  0.37796002    -0.00720
C893        C  0.46997300  0.34534940  0.90448313    -0.01850
C894        C  0.46051204  0.34094953  0.92733387     0.07830
C895        C  0.44790322  0.32057116  0.93504267    -0.01960
C896        C  0.44509187  0.30500934  0.92021783    -0.01970
C897        C  0.45611641  0.30974824  0.89851149     0.07960
C898        C  0.46883979  0.33010739  0.89096970    -0.02160
Br899      Br  0.48634674  0.33779480  0.86324721    -0.00710
Br900      Br  0.48336161  0.37191776  0.89030495    -0.00780
Br901      Br  0.42578103  0.27711531  0.92953628    -0.00740
Br902      Br  0.43536181  0.31369013  0.96648124    -0.00720
C903        C  0.45651132  0.23601477  0.89288555    -0.01850
C904        C  0.46966435  0.25722521  0.89117905     0.07830
C905        C  0.49066869  0.26717362  0.89412120    -0.01960
C906        C  0.49861371  0.25581400  0.89542598    -0.01970
C907        C  0.48560878  0.23460047  0.89357967     0.07960
C908        C  0.46446368  0.22465927  0.89413865    -0.02160
Br909      Br  0.44638233  0.19553076  0.89359301    -0.00710
Br910      Br  0.42764576  0.22258269  0.89126244    -0.00780
Br911      Br  0.52745514  0.26919855  0.89726466    -0.00740
Br912      Br  0.50873980  0.29628639  0.89336085    -0.00720
C913        C  0.51877811  0.21845231  0.78204727    -0.01850
C914        C  0.49995343  0.20953948  0.77046459     0.07830
C915        C  0.48239880  0.20238819  0.78416445    -0.01960
C916        C  0.48366896  0.20436354  0.80931028    -0.01970
C917        C  0.50247640  0.21328945  0.82098892     0.07960
C918        C  0.52002520  0.22025780  0.80737608    -0.02160
Br919      Br  0.54569023  0.23254986  0.82345697    -0.00710
Br920      Br  0.54278347  0.22849490  0.76315554    -0.00780
Br921      Br  0.45931572  0.19415934  0.82771818    -0.00740
Br922      Br  0.45630557  0.18911239  0.76859034    -0.00720
C923        C  0.43445104  0.26867990  0.78003912    -0.01850
C924        C  0.45301737  0.27864623  0.76755412     0.07830
C925        C  0.47133445  0.28920991  0.78057651    -0.01960
C926        C  0.47111066  0.28954463  0.80593727    -0.01970
C927        C  0.45254137  0.27926365  0.81850371     0.07960
C928        C  0.43421352  0.26900028  0.80549837    -0.02160
Br929      Br  0.40885553  0.25463274  0.82265592    -0.00710
Br930      Br  0.40939633  0.25384515  0.76221377    -0.00780
Br931      Br  0.49636079  0.30396020  0.82351233    -0.00740
Br932      Br  0.49679648  0.30297945  0.76355129    -0.00720
C933        C  0.49248690  0.24547715  0.69132724    -0.01850
C934        C  0.47884501  0.22472455  0.69603115     0.07830
C935        C  0.45799897  0.21596643  0.69794486    -0.01960
C936        C  0.45124940  0.22841705  0.69853474    -0.01970
C937        C  0.46538593  0.24959605  0.69745085     0.07960
C938        C  0.48591968  0.25801476  0.69268913    -0.02160
Br939      Br  0.50578853  0.28677800  0.69193993    -0.00710
Br940      Br  0.52067365  0.25681296  0.68600270    -0.00780
Br941      Br  0.42295591  0.21671100  0.70340594    -0.00740
Br942      Br  0.43909862  0.18721540  0.70266675    -0.00720
C943        C  0.47124962  0.33254337  0.65752774    -0.01850
C944        C  0.45439054  0.33333581  0.65764127     0.07830
C945        C  0.43654806  0.31805496  0.66970376    -0.01960
C946        C  0.43605485  0.30278500  0.68253134    -0.01970
C947        C  0.45365515  0.30326182  0.68435365     0.07960
C948        C  0.47123128  0.31825825  0.67170866    -0.02160
Br949      Br  0.49621229  0.32100262  0.67560364    -0.00710
Br950      Br  0.49438361  0.35070578  0.63728343    -0.00780
Br951      Br  0.41129999  0.28127710  0.69780263    -0.00740
Br952      Br  0.41317371  0.31859931  0.67008520    -0.00720
C953        C  0.32223695  0.43629024  0.43792713    -0.01850
C954        C  0.34250610  0.44734681  0.42995371     0.07830
C955        C  0.34723979  0.45539842  0.40640437    -0.01960
C956        C  0.33252594  0.45461732  0.39213043    -0.01970
C957        C  0.31210230  0.44344282  0.39985784     0.07960
C958        C  0.30697606  0.43366243  0.42258605    -0.02160
Br959      Br  0.27903077  0.41602293  0.43263423    -0.00710
Br960      Br  0.31538481  0.42550540  0.47025173    -0.00780
Br961      Br  0.34145135  0.47071022  0.36309415    -0.00740
Br962      Br  0.37363922  0.46642056  0.39269279    -0.00720
C963        C  0.58772204  0.69339421  0.40405440    -0.01850
C964        C  0.59285187  0.69677686  0.42874522     0.07830
C965        C  0.60278053  0.71651642  0.43814448    -0.01960
C966        C  0.60699928  0.73255086  0.42309516    -0.01970
C967        C  0.60017723  0.72877146  0.39886808     0.07960
C968        C  0.59042008  0.70895119  0.38954140    -0.02160
Br969      Br  0.57902986  0.70202771  0.35748725    -0.00710
Br970      Br  0.57806186  0.66767162  0.38941660    -0.00780
Br971      Br  0.62276900  0.75978829  0.43566593    -0.00740
Br972      Br  0.60979897  0.72156192  0.47191207    -0.00720
C973        C  0.16385284  0.48222477  0.15156344    -0.01850
C974        C  0.16161420  0.49754194  0.15866425     0.07830
C975        C  0.17493154  0.51159298  0.17654900    -0.01960
C976        C  0.19000059  0.51024594  0.18660688    -0.01970
C977        C  0.18961893  0.49291648  0.18262036     0.07960
C978        C  0.17638100  0.47885042  0.16487848    -0.02160
Br979      Br  0.17346763  0.45377675  0.16001354    -0.00710
Br980      Br  0.15093868  0.46638007  0.12274017    -0.00780
Br981      Br  0.21147459  0.53249485  0.20560794    -0.00740
Br982      Br  0.17168258  0.53129785  0.19038675    -0.00720
C983        C  0.91110977  0.35050944  0.89787997    -0.01850
C984        C  0.89111711  0.34495245  0.89767181     0.07830
C985        C  0.88476039  0.35225334  0.91576132    -0.01960
C986        C  0.89832710  0.36511107  0.93386600    -0.01970
C987        C  0.91859864  0.37144661  0.93346328     0.07960
C988        C  0.92493447  0.36400459  0.91549897    -0.02160
Br989      Br  0.95278173  0.37315756  0.91396517    -0.00710
Br990      Br  0.91948921  0.33932792  0.87432912    -0.00780
Br991      Br  0.88890458  0.37368161  0.95961032    -0.00740
Br992      Br  0.85764213  0.34532893  0.91518214    -0.00720
C993        C  0.83695674  0.26249609  0.88275677    -0.01850
C994        C  0.83121668  0.27553074  0.87832380     0.07830
C995        C  0.81059081  0.26784706  0.87777414    -0.01960
C996        C  0.79570773  0.24689423  0.87932082    -0.01970
C997        C  0.80153263  0.23370767  0.88140731     0.07960
C998        C  0.82207630  0.24158231  0.88441036    -0.02160
Br999      Br  0.82976599  0.22344067  0.88902889    -0.00710
Br1000     Br  0.86522783  0.27303154  0.88406755    -0.00780
Br1001     Br  0.76748606  0.23617004  0.87645092    -0.00740
Br1002     Br  0.80289878  0.28602177  0.87348283    -0.00720
C1003       C  0.76027451  0.18868300  0.77884895    -0.01850
C1004       C  0.76918243  0.18055715  0.76658333     0.07830
C1005       C  0.77846296  0.17320039  0.77966464    -0.01960
C1006       C  0.77925634  0.17443755  0.80506122    -0.01970
C1007       C  0.77075785  0.18301758  0.81719500     0.07960
C1008       C  0.76104063  0.18988813  0.80404748    -0.02160
Br1009     Br  0.74967226  0.20205897  0.82043748    -0.00710
Br1010     Br  0.74802377  0.19937838  0.76107898    -0.00780
Br1011     Br  0.79290810  0.16554315  0.82320744    -0.00740
Br1012     Br  0.79102253  0.16259979  0.76264815    -0.00720
C1013       C  0.85626723  0.32957782  0.77383397    -0.01850
C1014       C  0.86444676  0.32087278  0.76121092     0.07830
C1015       C  0.87542213  0.31515899  0.77377481    -0.01960
C1016       C  0.87687433  0.31667525  0.79905459    -0.01970
C1017       C  0.86743868  0.32400156  0.81187845     0.07960
C1018       C  0.85774590  0.33112056  0.79919830    -0.02160
Br1019     Br  0.84546770  0.34177467  0.81679161    -0.00710
Br1020     Br  0.84204366  0.33821672  0.75642786    -0.00780
Br1021     Br  0.89062812  0.30742910  0.81635558    -0.00740
Br1022     Br  0.88765035  0.30434678  0.75632081    -0.00720
C1023       C  0.79068522  0.23898006  0.69727054    -0.01850
C1024       C  0.79702998  0.22614459  0.69749929     0.07830
C1025       C  0.81778256  0.23446717  0.69571671    -0.01960
C1026       C  0.83223553  0.25551819  0.69640823    -0.01970
C1027       C  0.82592459  0.26828883  0.69850618     0.07960
C1028       C  0.80517417  0.26008184  0.69774545    -0.02160
Br1029     Br  0.79674937  0.27781895  0.69898104    -0.00710
Br1030     Br  0.76225946  0.22770752  0.69870005    -0.00780
Br1031     Br  0.86067661  0.26677042  0.69675420    -0.00740
Br1032     Br  0.82631780  0.21681431  0.69421893    -0.00720
C1033       C  0.54894027  0.86158085  0.17394044    -0.01850
C1034       C  0.56597144  0.86452696  0.18532482     0.07830
C1035       C  0.58486921  0.88352432  0.18390044    -0.01960
C1036       C  0.58640401  0.89984998  0.17255440    -0.01970
C1037       C  0.56906452  0.89716999  0.16236809     0.07960
C1038       C  0.55047673  0.87780691  0.16243842    -0.02160
Br1039     Br  0.52703084  0.87333466  0.14659202    -0.00710
Br1040     Br  0.52333970  0.83522188  0.17445206    -0.00780
Br1041     Br  0.61194570  0.92623112  0.17300612    -0.00740
Br1042     Br  0.60842903  0.88761752  0.19884421    -0.00720
C1043       C  0.74426322  0.15919631  0.92249155    -0.01850
C1044       C  0.74066637  0.16328719  0.89905351     0.07830
C1045       C  0.72050375  0.15357952  0.89097780    -0.01960
C1046       C  0.70426905  0.13960300  0.90586957    -0.01970
C1047       C  0.70785589  0.13672817  0.92988014     0.07960
C1048       C  0.72791707  0.14649722  0.93811940    -0.02160
Br1049     Br  0.73316423  0.14339933  0.97116084    -0.00710
Br1050     Br  0.77152005  0.17045709  0.93313831    -0.00780
Br1051     Br  0.67719491  0.12352455  0.89251015    -0.00740
Br1052     Br  0.71453626  0.16026256  0.86028124    -0.00720
C1053       C  0.47998441  0.14287004  0.89811627    -0.01850
C1054       C  0.49350455  0.14598495  0.91644562     0.07830
C1055       C  0.50737316  0.16549724  0.92597191    -0.01960
C1056       C  0.50839064  0.18206534  0.91640296    -0.01970
C1057       C  0.49530447  0.17907100  0.89750308     0.07960
C1058       C  0.48065152  0.15931719  0.88892112    -0.02160
Br1059     Br  0.46135323  0.15465570  0.86456443    -0.00710
Br1060     Br  0.46142974  0.11627229  0.88446821    -0.00780
Br1061     Br  0.52845627  0.20894638  0.92829283    -0.00740
Br1062     Br  0.52502580  0.16947958  0.95211154    -0.00720
C1063       C  0.57736696  0.87602701  0.40156178    -0.01850
C1064       C  0.55886670  0.85681799  0.39903357     0.07830
C1065       C  0.54114153  0.85299684  0.40934144    -0.01960
C1066       C  0.54178592  0.86848744  0.42162292    -0.01970
C1067       C  0.56018220  0.88795169  0.42344990     0.07960
C1068       C  0.57804981  0.89158821  0.41366169    -0.02160
Br1069     Br  0.60321343  0.91831378  0.41468026    -0.00710
Br1070     Br  0.60161331  0.88148249  0.38703109    -0.00780
Br1071     Br  0.51740907  0.86289935  0.43602662    -0.00740
Br1072     Br  0.51588622  0.82661983  0.40590796    -0.00720
C1073       C  0.72099384  0.13378965  0.65058184    -0.01850
C1074       C  0.70129264  0.12499651  0.65962415     0.07830
C1075       C  0.69882691  0.13028763  0.68291713    -0.01960
C1076       C  0.71572498  0.14562980  0.69597966    -0.01970
C1077       C  0.73549859  0.15436682  0.68711124     0.07960
C1078       C  0.73802525  0.14791144  0.66463605    -0.02160
Br1079     Br  0.76478202  0.15793722  0.65325590    -0.00710
Br1080     Br  0.72487870  0.12745407  0.61846679    -0.00780
Br1081     Br  0.71120871  0.15546303  0.72514813    -0.00740
Br1082     Br  0.67242741  0.11570349  0.69801165    -0.00720
C1083       C  0.50780743  0.17515820  0.68196477    -0.01850
C1084       C  0.49172388  0.17145587  0.69633704     0.07830
C1085       C  0.47524904  0.15148822  0.70153060    -0.01960
C1086       C  0.47506421  0.13518659  0.69282093    -0.01970
C1087       C  0.49130160  0.13884692  0.67866678     0.07960
C1088       C  0.50757578  0.15886942  0.67303147    -0.02160
Br1089     Br  0.52939491  0.16406691  0.65270022    -0.00710
Br1090     Br  0.53042836  0.20260277  0.67527029    -0.00780
Br1091     Br  0.45317781  0.10795929  0.70173229    -0.00740
Br1092     Br  0.45310040  0.14656499  0.72100239    -0.00720
C1093       C  0.12367696  0.71911472  0.17033717    -0.01850
C1094       C  0.13068493  0.70769355  0.16245324     0.07830
C1095       C  0.15115534  0.71526088  0.16614189    -0.01960
C1096       C  0.16401784  0.73322432  0.17917887    -0.01970
C1097       C  0.15700345  0.74455306  0.18709634     0.07960
C1098       C  0.13698776  0.73773630  0.18207540    -0.02160
Br1099     Br  0.12777308  0.75386735  0.19177845    -0.00710
Br1100     Br  0.09554074  0.70877217  0.16714969    -0.00780
Br1101     Br  0.19073264  0.74129523  0.18779869    -0.00740
Br1102     Br  0.16211779  0.70162415  0.15269898    -0.00720
C1103       C  0.33846467  0.90121830  0.17386128    -0.01850
C1104       C  0.33135818  0.91003771  0.18857302     0.07830
C1105       C  0.34217532  0.93131017  0.18922684    -0.01960
C1106       C  0.36043501  0.94359887  0.17640518    -0.01970
C1107       C  0.36751653  0.93471603  0.16198016     0.07960
C1108       C  0.35620511  0.91353570  0.16017783    -0.02160
Br1109     Br  0.36482005  0.90133596  0.13849567    -0.00710
Br1110     Br  0.32500739  0.87238148  0.17347681    -0.00780
Br1111     Br  0.37639782  0.97261184  0.17985788    -0.00740
Br1112     Br  0.33192651  0.94379690  0.20734446    -0.00720
C1113       C  0.25670603  0.83238260  0.20221607    -0.01850
C1114       C  0.25887396  0.85084519  0.20186595     0.07830
C1115       C  0.24163355  0.85084563  0.19966646    -0.01960
C1116       C  0.22219700  0.83244699  0.20004436    -0.01970
C1117       C  0.22004494  0.81409148  0.20272334     0.07960
C1118       C  0.23732629  0.81403992  0.20277028    -0.02160
Br1119     Br  0.23457953  0.78904771  0.20666811    -0.00710
Br1120     Br  0.28025363  0.83224636  0.20503183    -0.00780
Br1121     Br  0.19845628  0.83235072  0.19912476    -0.00740
Br1122     Br  0.24476558  0.87617024  0.19852159    -0.00720
C1123       C  0.17703947  0.75692733  0.30665842    -0.01850
C1124       C  0.17436803  0.76955172  0.32096296     0.07830
C1125       C  0.17098201  0.78285894  0.30964125    -0.01960
C1126       C  0.17137964  0.78430438  0.28430451    -0.01970
C1127       C  0.17501631  0.77235474  0.27016526     0.07960
C1128       C  0.17737886  0.75832943  0.28138083    -0.02160
Br1129     Br  0.18291494  0.74219778  0.26224704    -0.00710
Br1130     Br  0.18202649  0.73881979  0.32129298    -0.00780
Br1131     Br  0.16725612  0.80286695  0.26888198    -0.00740
Br1132     Br  0.16601369  0.79929216  0.32888344    -0.00720
C1133       C  0.32897449  0.91383512  0.42551257    -0.01850
C1134       C  0.32903349  0.90517633  0.40347979     0.07830
C1135       C  0.34709273  0.90816137  0.39549939    -0.01960
C1136       C  0.36518282  0.92102196  0.40829260    -0.01970
C1137       C  0.36492267  0.92863420  0.43110179     0.07960
C1138       C  0.34656142  0.92459414  0.43987256    -0.02160
Br1139     Br  0.34476935  0.93252612  0.47206048    -0.00710
Br1140     Br  0.30514541  0.91180839  0.43573801    -0.00780
Br1141     Br  0.39034291  0.92943835  0.39296063    -0.00740
Br1142     Br  0.34714891  0.89364587  0.36788407    -0.00720
C1143       C  0.29999441  0.90373011  0.28387907    -0.01850
C1144       C  0.30145492  0.88955847  0.27140559     0.07830
C1145       C  0.30243703  0.87527198  0.28428589    -0.01960
C1146       C  0.30095125  0.87448319  0.30952373    -0.01970
C1147       C  0.29853851  0.88804833  0.32198849     0.07960
C1148       C  0.29862749  0.90303483  0.30922689    -0.02160
Br1149     Br  0.29589338  0.92188635  0.32642143    -0.00710
Br1150     Br  0.29881868  0.92334785  0.26611064    -0.00780
Br1151     Br  0.30197659  0.85458084  0.32698145    -0.00740
Br1152     Br  0.30531294  0.85642926  0.26719564    -0.00720
C1153       C  0.25535850  0.82757663  0.39167641    -0.01850
C1154       C  0.25674916  0.84562650  0.39056460     0.07830
C1155       C  0.23910395  0.84497231  0.39225669    -0.01960
C1156       C  0.22000634  0.82625886  0.39216405    -0.01970
C1157       C  0.21859378  0.80823947  0.39033449     0.07960
C1158       C  0.23624166  0.80884618  0.39150653    -0.02160
Br1159     Br  0.23423532  0.78407622  0.39008105    -0.00710
Br1160     Br  0.27958403  0.82849471  0.39076364    -0.00780
Br1161     Br  0.19570164  0.82520217  0.39256962    -0.00740
Br1162     Br  0.24121838  0.86980823  0.39275033    -0.00720
C1163       C  0.73863708  0.61321903  0.90641864    -0.01850
C1164       C  0.73870132  0.59639804  0.90047164     0.07830
C1165       C  0.72331208  0.57722041  0.90975523    -0.01960
C1166       C  0.70816016  0.57490492  0.92474376    -0.01970
C1167       C  0.70680645  0.59123087  0.92853579     0.07960
C1168       C  0.72242502  0.61057604  0.91969127    -0.02160
Br1169     Br  0.72120653  0.63334208  0.92396560    -0.00710
Br1170     Br  0.76082468  0.63995756  0.89630061    -0.00780
Br1171     Br  0.68985206  0.54932655  0.94092295    -0.00740
Br1172     Br  0.72136009  0.55341775  0.90022110    -0.00720
C1173       C  0.88777369  0.57822185  0.89726892    -0.01850
C1174       C  0.86876936  0.55944340  0.89506536     0.07830
C1175       C  0.86525191  0.54226284  0.90654976    -0.01960
C1176       C  0.88087623  0.54372065  0.91966660    -0.01970
C1177       C  0.90010507  0.56240205  0.92131929     0.07960
C1178       C  0.90340467  0.57973529  0.91040234    -0.02160
Br1179     Br  0.92978716  0.60528450  0.91155758    -0.00710
Br1180     Br  0.89288349  0.60164694  0.88086445    -0.00780
Br1181     Br  0.87583889  0.52008735  0.93546327    -0.00740
Br1182     Br  0.83908394  0.51666413  0.90377867    -0.00720
C1183       C  0.82495442  0.59193900  0.87854793    -0.01850
C1184       C  0.81585991  0.57105706  0.87602554     0.07830
C1185       C  0.79461176  0.55734853  0.87591395    -0.01960
C1186       C  0.78256737  0.56454467  0.87576302    -0.01970
C1187       C  0.79164258  0.58546134  0.87734825     0.07960
C1188       C  0.81281900  0.59906925  0.87961454    -0.02160
Br1189     Br  0.82518165  0.62764823  0.88235292    -0.00710
Br1190     Br  0.85398040  0.61101042  0.87818685    -0.00780
Br1191     Br  0.75392591  0.54580664  0.87024874    -0.00740
Br1192     Br  0.78205540  0.52863645  0.87486939    -0.00720
C1193       C  0.71875234  0.57188739  0.67806731    -0.01850
C1194       C  0.73449861  0.59204687  0.68401928     0.07830
C1195       C  0.73355145  0.60786044  0.67575887    -0.01960
C1196       C  0.71617947  0.60350776  0.66370862    -0.01970
C1197       C  0.70032016  0.58329069  0.65778643     0.07960
C1198       C  0.70233019  0.56767838  0.66392344    -0.02160
Br1199     Br  0.68322279  0.54048030  0.65209101    -0.00710
Br1200     Br  0.71847366  0.54966163  0.69086100    -0.00780
Br1201     Br  0.71383617  0.62540846  0.65764156    -0.00740
Br1202     Br  0.75623212  0.63567826  0.68090599    -0.00720
C1203       C  0.78157173  0.62742192  0.77903539    -0.01850
C1204       C  0.76580305  0.61115910  0.76535360     0.07830
C1205       C  0.74929726  0.59404049  0.77740761    -0.01960
C1206       C  0.74908645  0.59292088  0.80271304    -0.01970
C1207       C  0.76545128  0.60862332  0.81620336     0.07960
C1208       C  0.78147650  0.62607220  0.80439944    -0.02160
Br1209     Br  0.80373664  0.64764930  0.82303146    -0.00710
Br1210     Br  0.80371999  0.65114703  0.76290601    -0.00780
Br1211     Br  0.72730731  0.56877161  0.81882923    -0.00740
Br1212     Br  0.72800554  0.57068264  0.75962627    -0.00720
C1213       C  0.85444561  0.55814694  0.77333806    -0.01850
C1214       C  0.83706109  0.54120351  0.76215564     0.07830
C1215       C  0.82123141  0.52588001  0.77669977    -0.01960
C1216       C  0.82209183  0.52816177  0.80199081    -0.01970
C1217       C  0.83888510  0.54564983  0.81285386     0.07960
C1218       C  0.85532522  0.56027188  0.79854841    -0.02160
Br1219     Br  0.87828612  0.58442906  0.81333313    -0.00710
Br1220     Br  0.87630241  0.58003423  0.75449730    -0.00780
Br1221     Br  0.79996035  0.50778262  0.82178591    -0.00740
Br1222     Br  0.79801708  0.50219173  0.76180372    -0.00720
C1223       C  0.80602744  0.57188756  0.68648338    -0.01850
C1224       C  0.81319177  0.56891943  0.70823739     0.07830
C1225       C  0.80949633  0.57531002  0.73000854    -0.01960
C1226       C  0.79521225  0.57952618  0.73055961    -0.01970
C1227       C  0.79051387  0.58550685  0.70917471     0.07960
C1228       C  0.79702247  0.58244191  0.68690821    -0.02160
Br1229     Br  0.79538190  0.59364301  0.65709503    -0.00710
Br1230     Br  0.80676578  0.56050429  0.65630947    -0.00780
Br1231     Br  0.78030545  0.57354684  0.76041166    -0.00740
Br1232     Br  0.82538326  0.58114943  0.75899020    -0.00720
C1233       C  0.89894817  0.33950887  0.66697959    -0.01850
C1234       C  0.88175892  0.33843252  0.67423375     0.07830
C1235       C  0.87769763  0.35152590  0.66409591    -0.01960
C1236       C  0.89124414  0.36624338  0.64734270    -0.01970
C1237       C  0.90907747  0.36809068  0.64099527     0.07960
C1238       C  0.91265092  0.35434859  0.65041219    -0.02160
Br1239     Br  0.93702132  0.35669931  0.64231985    -0.00710
Br1240     Br  0.90418253  0.32122984  0.68074165    -0.00780
Br1241     Br  0.88518486  0.38372645  0.63293198    -0.00740
Br1242     Br  0.85381725  0.34956121  0.67377169    -0.00720
C1243       C  0.87886816  0.54378923  0.65460171    -0.01850
C1244       C  0.89770167  0.56285436  0.65340978     0.07830
C1245       C  0.89997229  0.57981633  0.66401071    -0.01960
C1246       C  0.88384066  0.57746660  0.67698601    -0.01970
C1247       C  0.86548157  0.55811224  0.67958908     0.07960
C1248       C  0.86281441  0.54142995  0.66767798    -0.02160
Br1249     Br  0.83710957  0.51524152  0.66953027    -0.00710
Br1250     Br  0.87499254  0.52084180  0.63825376    -0.00780
Br1251     Br  0.88744288  0.60061454  0.69236949    -0.00740
Br1252     Br  0.92568073  0.60600648  0.66262958    -0.00720
C1253       C  0.13121728  0.71666985  0.43210279    -0.01850
C1254       C  0.13100824  0.69964217  0.42600938     0.07830
C1255       C  0.14490451  0.70182209  0.40862498    -0.01960
C1256       C  0.15911196  0.72078836  0.39836425    -0.01970
C1257       C  0.15769805  0.73695323  0.40233907     0.07960
C1258       C  0.14391041  0.73499382  0.41947579    -0.02160
Br1259     Br  0.14236518  0.75738926  0.42543612    -0.00710
Br1260     Br  0.11507176  0.71560342  0.45842347    -0.00780
Br1261     Br  0.18147025  0.72500706  0.38021917    -0.00740
Br1262     Br  0.14352732  0.67887737  0.39617875    -0.00720
C1263       C  0.18452852  0.49491357  0.41592208    -0.01850
C1264       C  0.17871113  0.47890763  0.40003987     0.07830
C1265       C  0.15807460  0.46305247  0.39719307    -0.01960
C1266       C  0.14318309  0.46448469  0.40751345    -0.01970
C1267       C  0.14893555  0.48108821  0.42243664     0.07960
C1268       C  0.16964478  0.49580740  0.42747105    -0.02160
Br1269     Br  0.17765525  0.51708028  0.45038423    -0.00710
Br1270     Br  0.21285369  0.51576838  0.42136590    -0.00780
Br1271     Br  0.11518145  0.44465182  0.39894829    -0.00740
Br1272     Br  0.15026595  0.43907389  0.37965669    -0.00720
loop_ 
_geom_bond_atom_site_label_1 
_geom_bond_atom_site_label_2 
_geom_bond_distance 
_geom_bond_site_symmetry_2 
_ccdc_geom_bond_type 
N1            N2   1.321       .  A
N1            C5   1.348       .  A
N1           Cu9   2.082       .  S
N2            C3   1.341       .  A
N2           Cu8   2.052       .  S
C3            C4   1.378       .  A
C3            H6   1.082       .  S
C4            C5   1.386       .  A
C4           C93   1.466       .  S
C5            H7   1.082       .  S
Cu8          N11   2.052       .  S
Cu9          N19   2.083       .  S
Cu10         N12   2.073       .  S
Cu10         N18   2.075       .  S
N11          N12   1.320       .  A
N11          C15   1.339       .  A
N12          C13   1.348       .  A
C13          C14   1.386       .  A
C13          H16   1.082       .  S
C14          C15   1.379       .  A
C14          C28   1.469       .  S
C15          H17   1.082       .  S
N18          N19   1.324       .  A
N18          C22   1.343       .  A
N19          C20   1.346       .  A
C20          C21   1.385       .  A
C20          H23   1.082       .  S
C21          C22   1.382       .  A
C21        C1267   1.480       .  S
C22          H24   1.082       .  S
N25          N26   1.321       .  A
N25          C29   1.348       .  A
N25         Cu33   2.071       .  S
N26          C27   1.341       .  A
N26         Cu32   2.067       .  S
C27          C28   1.382       .  A
C27          H30   1.082       .  S
C28          C29   1.383       .  A
C29          H31   1.082       .  S
Cu32         N35   2.067       .  S
Cu33         N43   2.072       .  S
Cu34         N36   2.066       .  S
Cu34         N42   2.067       .  S
N35          N36   1.321       .  A
N35          C39   1.341       .  A
N36          C37   1.346       .  A
C37          C38   1.381       .  A
C37          H40   1.082       .  S
C38          C39   1.383       .  A
C38          C52   1.464       .  S
C39          H41   1.082       .  S
N42          N43   1.321       .  A
N42          C46   1.343       .  A
N43          C44   1.342       .  A
C44          C45   1.386       .  A
C44          H47   1.081       .  S
C45          C46   1.386       .  A
C45        C1254   1.486       .  S
C46          H48   1.081       .  S
N49          N50   1.322   1_655  A
N49          C53   1.349       .  A
N49         Cu57   2.081       .  S
N50          C51   1.338       .  A
N50         Cu56   2.048       .  S
C51          C52   1.376       .  A
C51          H54   1.082       .  S
C52          C53   1.385   1_455  A
C53          H55   1.082       .  S
Cu56         N59   2.050   1_455  S
Cu57         N67   2.082       .  S
Cu58         N60   2.071       .  S
Cu58         N66   2.073       .  S
N59          N60   1.320       .  A
N59          C63   1.344   1_655  A
N60          C61   1.344       .  A
C61          C62   1.385       .  A
C61          H64   1.082       .  S
C62          C63   1.379   1_655  A
C62          C86   1.467       .  S
C63          H65   1.082       .  S
N66          N67   1.324       .  A
N66          C70   1.343       .  A
N67          C68   1.347       .  A
C68          C69   1.384       .  A
C68          H71   1.082       .  S
C69          C70   1.381       .  A
C69        C1244   1.478       .  S
C70          H72   1.082       .  S
N73          N74   1.320       .  A
N73          C77   1.348       .  A
N73         Cu81   2.079       .  S
N74          C75   1.338       .  A
N74         Cu80   2.044       .  S
C75          C76   1.377       .  A
C75          H78   1.082       .  S
C76          C77   1.388       .  A
C76        C1237   1.476       .  S
C77          H79   1.082       .  S
Cu80         N83   2.044       .  S
Cu81         N91   2.080       .  S
Cu82         N84   2.085   1_455  S
Cu82         N90   2.087       .  S
N83          N84   1.320       .  A
N83          C87   1.340       .  A
N84          C85   1.348   1_655  A
C85          C86   1.388   1_455  A
C85          H88   1.082       .  S
C86          C87   1.377       .  A
C87          H89   1.082       .  S
N90          N91   1.326   1_455  A
N90          C94   1.344       .  A
N91          C92   1.348       .  A
C92          C93   1.379   1_655  A
C92          H95   1.082       .  S
C93          C94   1.381       .  A
C94          H96   1.082       .  S
C97          C98   1.408       .  A
C97         C102   1.405       .  A
C97        C1247   1.480       .  S
C98          C99   1.410       .  A
C98         H103   1.081       .  S
C99         C100   1.407       .  A
C99        C1224   1.502       .  S
C100        C101   1.397       .  A
C100        H104   1.083       .  S
C101        C102   1.398       .  A
C101       C1214   1.488       .  S
C102        H105   1.084       .  S
C106        C107   1.410       .  A
C106        C111   1.405       .  A
C106       C1194   1.487       .  S
C107        C108   1.410       .  A
C107        H112   1.079       .  S
C108        C109   1.407       .  A
C108       C1227   1.505       .  S
C109        C110   1.398       .  A
C109        H113   1.083       .  S
C110        C111   1.398       .  A
C110       C1204   1.487       .  S
C111        H114   1.084       .  S
C115        C116   1.406       .  A
C115        C120   1.404       .  A
C115       C1174   1.478       .  S
C116        C117   1.404       .  A
C116        H121   1.084       .  S
C117        C118   1.404       .  A
C117       C1184   1.482       .  S
C118        C119   1.400       .  A
C118        H122   1.085       .  S
C119        C120   1.400       .  A
C119       C1217   1.480       .  S
C120        H123   1.084       .  S
C124        C125   1.408       .  A
C124        C129   1.411       .  A
C124       C1164   1.491       .  S
C125        C126   1.402       .  A
C125        H130   1.084       .  S
C126        C127   1.398       .  A
C126       C1207   1.480       .  S
C127        C128   1.399       .  A
C127        H131   1.085       .  S
C128        C129   1.406       .  A
C128       C1187   1.481       .  S
C129        H132   1.083       .  S
C133        C134   1.409       .  A
C133        C138   1.406       .  A
C133       C1134   1.485       .  S
C134        C135   1.402       .  A
C134        H139   1.083       .  S
C135        C136   1.400       .  A
C135       C1154   1.476       .  S
C136        C137   1.397       .  A
C136        H140   1.085       .  S
C137        C138   1.396       .  A
C137       C1147   1.475       .  S
C138        H141   1.084       .  S
C142        C143   1.404       .  A
C142        C147   1.408       .  A
C142       C1257   1.478       .  S
C143        C144   1.402       .  A
C143        H148   1.084       .  S
C144        C145   1.401       .  A
C144       C1157   1.475       .  S
C145        C146   1.399       .  A
C145        H149   1.085       .  S
C146        C147   1.403       .  A
C146       C1124   1.485       .  S
C147        H150   1.084       .  S
C151        C152   1.408       .  A
C151        C156   1.411       .  A
C151       C1104   1.487       .  S
C152        C153   1.399       .  A
C152        H157   1.084       .  S
C153        C154   1.395       .  A
C153       C1144   1.474       .  S
C154        C155   1.397       .  A
C154        H158   1.085       .  S
C155        C156   1.403       .  A
C155       C1114   1.476       .  S
C156        H159   1.083       .  S
C160        C161   1.402       .  A
C160        C165   1.407       .  A
C160       C1097   1.478       .  S
C161        C162   1.399       .  A
C161        H166   1.084       .  S
C162        C163   1.399       .  A
C162       C1127   1.479       .  S
C163        C164   1.401       .  A
C163        H167   1.085       .  S
C164        C165   1.404       .  A
C164       C1117   1.477       .  S
C165        H168   1.084       .  S
N169        N170   1.321       .  A
N169        C173   1.348       .  A
N169       Cu177   2.072       .  S
N170        C171   1.339       .  A
N170       Cu176   2.053       .  S
C171        C172   1.378       .  A
C171        H174   1.082       .  S
C172        C173   1.384       .  A
C172        C254   1.465       .  S
C173        H175   1.082       .  S
Cu176       N179   2.053       .  S
Cu177       N187   2.074       .  S
Cu178       N180   2.072       .  S
Cu178       N186   2.073       .  S
N179        N180   1.320       .  A
N179        C183   1.341       .  A
N180        C181   1.346       .  A
C181        C182   1.385       .  A
C181        H184   1.082       .  S
C182        C183   1.380       .  A
C182        C206   1.469       .  S
C183        H185   1.082       .  S
N186        N187   1.324       .  A
N186        C190   1.344       .  A
N187        C188   1.344       .  A
C188        C189   1.382       .  A
C188        H191   1.082       .  S
C189        C190   1.381       .  A
C189       C1087   1.475       .  S
C190        H192   1.082       .  S
N193        N194   1.323       .  A
N193        C197   1.348       .  A
N193       Cu201   2.079       .  S
N194        C195   1.342       .  A
N194       Cu200   2.072       .  S
C195        C196   1.381       .  A
C195        H198   1.082       .  S
C196        C197   1.382       .  A
C196        C220   1.465       .  S
C197        H199   1.082       .  S
Cu200       N203   2.070       .  S
Cu201       N211   2.079       .  S
Cu202       N204   2.063       .  S
Cu202       N210   2.062       .  S
N203        N204   1.320       .  A
N203        C207   1.343       .  A
N204        C205   1.345       .  A
C205        C206   1.382       .  A
C205        H208   1.082       .  S
C206        C207   1.384       .  A
C207        H209   1.082       .  S
N210        N211   1.322       .  A
N210        C214   1.340       .  A
N211        C212   1.347       .  A
C212        C213   1.387       .  A
C212        H215   1.081       .  S
C213        C214   1.382       .  A
C213       C1074   1.483       .  S
C214        H216   1.082       .  S
N217        N218   1.322       .  A
N217        C221   1.349       .  A
N217       Cu225   2.083       .  S
N218        C219   1.341   1_565  A
N218       Cu224   2.056       .  S
C219        C220   1.378       .  A
C219        H222   1.082       .  S
C220        C221   1.385   1_545  A
C221        H223   1.082       .  S
Cu224       N227   2.054       .  S
Cu225       N235   2.084       .  S
Cu226       N228   2.066       .  S
Cu226       N234   2.068       .  S
N227        N228   1.320       .  A
N227        C231   1.341       .  A
N228        C229   1.346       .  A
C229        C230   1.384       .  A
C229        H232   1.082       .  S
C230        C231   1.380       .  A
C230        C244   1.468       .  S
C231        H233   1.082   1_565  S
N234        N235   1.324       .  A
N234        C238   1.343       .  A
N235        C236   1.346       .  A
C236        C237   1.385       .  A
C236        H239   1.082       .  S
C237        C238   1.381       .  A
C237       C1067   1.480       .  S
C238        H240   1.082       .  S
N241        N242   1.320       .  A
N241        C245   1.345       .  A
N241       Cu249   2.064       .  S
N242        C243   1.342       .  A
N242       Cu248   2.062       .  S
C243        C244   1.383       .  A
C243        H246   1.082   1_565  S
C244        C245   1.383       .  A
C245        H247   1.082       .  S
Cu248       N251   2.063   1_565  S
Cu249       N259   2.064       .  S
Cu250       N252   2.071   1_565  S
Cu250       N258   2.072       .  S
N251        N252   1.322       .  A
N251        C255   1.340       .  A
N252        C253   1.348       .  A
C253        C254   1.382       .  A
C253        H256   1.082       .  S
C254        C255   1.380       .  A
C255        H257   1.082       .  S
N258        N259   1.322       .  A
N258        C262   1.345       .  A
N259        C260   1.340       .  A
C260        C261   1.383       .  A
C260        H263   1.081       .  S
C261        C262   1.386       .  A
C261       C1137   1.484       .  S
C262        H264   1.081       .  S
N265        N266   1.321       .  A
N265        C269   1.349   1_556  A
N265       Cu273   2.080       .  S
N266        C267   1.340       .  A
N266       Cu272   2.052       .  S
C267        C268   1.377   1_556  A
C267        H270   1.082       .  S
C268        C269   1.386       .  A
C268        C350   1.467       .  S
C269        H271   1.082       .  S
Cu272       N275   2.052       .  S
Cu273       N283   2.082       .  S
Cu274       N276   2.070       .  S
Cu274       N282   2.072       .  S
N275        N276   1.320       .  A
N275        C279   1.341       .  A
N276        C277   1.346       .  A
C277        C278   1.385       .  A
C277        H280   1.082       .  S
C278        C279   1.380       .  A
C278        C302   1.469       .  S
C279        H281   1.082       .  S
N282        N283   1.325       .  A
N282        C286   1.343       .  A
N283        C284   1.346       .  A
C284        C285   1.382       .  A
C284        H287   1.082       .  S
C285        C286   1.379       .  A
C285       C1054   1.473       .  S
C286        H288   1.082       .  S
N289        N290   1.322       .  A
N289        C293   1.348       .  A
N289       Cu297   2.075   1_554  S
N290        C291   1.342       .  A
N290       Cu296   2.071   1_554  S
C291        C292   1.381       .  A
C291        H294   1.082       .  S
C292        C293   1.382       .  A
C292        C316   1.465       .  S
C293        H295   1.082       .  S
Cu296       N299   2.070       .  S
Cu297       N307   2.076       .  S
Cu298       N300   2.063       .  S
Cu298       N306   2.062       .  S
N299        N300   1.321       .  A
N299        C303   1.343       .  A
N300        C301   1.345       .  A
C301        C302   1.382       .  A
C301        H304   1.082       .  S
C302        C303   1.384       .  A
C303        H305   1.082       .  S
N306        N307   1.322       .  A
N306        C310   1.340       .  A
N307        C308   1.346       .  A
C308        C309   1.385       .  A
C308        H311   1.082       .  S
C309        C310   1.381       .  A
C309       C1047   1.479       .  S
C310        H312   1.082       .  S
N313        N314   1.321   1_565  A
N313        C317   1.349       .  A
N313       Cu321   2.085       .  S
N314        C315   1.340       .  A
N314       Cu320   2.052       .  S
C315        C316   1.377       .  A
C315        H318   1.082       .  S
C316        C317   1.386   1_545  A
C317        H319   1.082       .  S
Cu320       N323   2.052   1_545  S
Cu321       N331   2.086       .  S
Cu322       N324   2.074       .  S
Cu322       N330   2.076       .  S
N323        N324   1.320       .  A
N323        C327   1.341       .  A
N324        C325   1.347       .  A
C325        C326   1.385       .  A
C325        H328   1.082       .  S
C326        C327   1.379       .  A
C326        C340   1.468       .  S
C327        H329   1.082   1_565  S
N330        N331   1.324       .  A
N330        C334   1.343       .  A
N331        C332   1.347       .  A
C332        C333   1.385       .  A
C332        H335   1.082       .  S
C333        C334   1.382       .  A
C333       C1037   1.482       .  S
C334        H336   1.082       .  S
N337        N338   1.321       .  A
N337        C341   1.346       .  A
N337       Cu345   2.064       .  S
N338        C339   1.343       .  A
N338       Cu344   2.072   1_565  S
C339        C340   1.383       .  A
C339        H342   1.082   1_565  S
C340        C341   1.382       .  A
C341        H343   1.082       .  S
Cu344       N347   2.072       .  S
Cu345       N355   2.066       .  S
Cu346       N348   2.072   1_565  S
Cu346       N354   2.073       .  S
N347        N348   1.322       .  A
N347        C351   1.342       .  A
N348        C349   1.348       .  A
C349        C350   1.382       .  A
C349        H352   1.082       .  S
C350        C351   1.381       .  A
C351        H353   1.082       .  S
N354        N355   1.323       .  A
N354        C358   1.345       .  A
N355        C356   1.342       .  A
C356        C357   1.380       .  A
C356        H359   1.082       .  S
C357        C358   1.382       .  A
C357       C1107   1.474       .  S
C358        H360   1.082       .  S
C361        C362   1.402       .  A
C361        C366   1.405       .  A
C361       C1234   1.472       .  S
C362        C363   1.399       .  A
C362        H367   1.084       .  S
C363        C364   1.402       .  A
C363       C1027   1.476       .  S
C364        C365   1.402       .  A
C364        H368   1.084       .  S
C365        C366   1.401       .  A
C365       C1014   1.480       .  S
C366        H369   1.084       .  S
C370        C371   1.411       .  A
C370        C375   1.408       .  A
C370       C1077   1.489       .  S
C371        C372   1.404       .  A
C371        H376   1.083       .  S
C372        C373   1.397       .  A
C372       C1024   1.477       .  S
C373        C374   1.394       .  A
C373        H377   1.085       .  S
C374        C375   1.399       .  A
C374       C1004   1.473       .  S
C375        H378   1.084       .  S
C379        C380   1.410       .  A
C379        C384   1.402       .  A
C379        C984   1.479       .  S
C380        C381   1.405       .  A
C380        H385   1.084       .  S
C381        C382   1.400       .  A
C381       C1017   1.479       .  S
C382        C383   1.398       .  A
C382        H386   1.085       .  S
C383        C384   1.396       .  A
C383        C994   1.473       .  S
C384        H387   1.084       .  S
C388        C389   1.408       .  A
C388        C393   1.409       .  A
C388       C1044   1.487       .  S
C389        C390   1.399       .  A
C389        H394   1.084       .  S
C390        C391   1.395       .  A
C390       C1007   1.474       .  S
C391        C392   1.398       .  A
C391        H395   1.085       .  S
C392        C393   1.401       .  A
C392        C997   1.474       .  S
C393        H396   1.084       .  S
N397        N398   1.322       .  A
N397        C401   1.348       .  A
N397       Cu405   2.084       .  S
N398        C399   1.340       .  A
N398       Cu404   2.050       .  S
C399        C400   1.376       .  A
C399        H402   1.082       .  S
C400        C401   1.386       .  A
C400        C424   1.464       .  S
C401        H403   1.082       .  S
Cu404       N407   2.046       .  S
Cu405       N415   2.082       .  S
Cu406       N408   2.083       .  S
Cu406       N414   2.085       .  S
N407        N408   1.319       .  A
N407        C411   1.339       .  A
N408        C409   1.351       .  A
C409        C410   1.389       .  A
C409        H412   1.082       .  S
C410        C411   1.378       .  A
C410        C472   1.469       .  S
C411        H413   1.082       .  S
N414        N415   1.322       .  A
N414        C418   1.344       .  A
N415        C416   1.345       .  A
C416        C417   1.390       .  A
C416        H419   1.080       .  S
C417        C418   1.391       .  A
C417        C974   1.500       .  S
C418        H420   1.081       .  S
N421        N422   1.322       .  A
N421        C425   1.346       .  A
N421       Cu429   2.063       .  S
N422        C423   1.344       .  A
N422       Cu428   2.079       .  S
C423        C424   1.383       .  A
C423        H426   1.082       .  S
C424        C425   1.379       .  A
C425        H427   1.082       .  S
Cu428       N431   2.079       .  S
Cu429       N439   2.063       .  S
Cu430       N432   2.063       .  S
Cu430       N438   2.063       .  S
N431        N432   1.322       .  A
N431        C435   1.344       .  A
N432        C433   1.345       .  A
C433        C434   1.379       .  A
C433        H436   1.082       .  S
C434        C435   1.384       .  A
C434        C448   1.462       .  S
C435        H437   1.082       .  S
N438        N439   1.321       .  A
N438        C442   1.344       .  A
N439        C440   1.341       .  A
C440        C441   1.384       .  A
C440        H443   1.082       .  S
C441        C442   1.384       .  A
C441       C1094   1.481       .  S
C442        H444   1.082       .  S
N445        N446   1.323   1_655  A
N445        C449   1.349   1_556  A
N445       Cu453   2.086       .  S
N446        C447   1.339   1_556  A
N446       Cu452   2.047       .  S
C447        C448   1.375       .  A
C447        H450   1.082       .  S
C448        C449   1.385   1_455  A
C449        H451   1.082       .  S
Cu452       N455   2.049   1_455  S
Cu453       N463   2.086       .  S
Cu454       N456   2.066       .  S
Cu454       N462   2.067       .  S
N455        N456   1.320       .  A
N455        C459   1.345   1_655  A
N456        C457   1.341       .  A
C457        C458   1.384       .  A
C457        H460   1.082       .  S
C458        C459   1.380   1_655  A
C458        C482   1.468       .  S
C459        H461   1.082       .  S
N462        N463   1.323       .  A
N462        C466   1.343       .  A
N463        C464   1.347       .  A
C464        C465   1.386       .  A
C464        H467   1.082       .  S
C465        C466   1.381       .  A
C465       C1177   1.479       .  S
C466        H468   1.082       .  S
N469        N470   1.327       .  A
N469        C473   1.350       .  A
N469       Cu477   2.093   1_454  S
N470        C471   1.342       .  A
N470       Cu476   2.088       .  S
C471        C472   1.380       .  A
C471        H474   1.082       .  S
C472        C473   1.382       .  A
C473        H475   1.082       .  S
Cu476       N479   2.084   1_454  S
Cu477       N487   2.091       .  S
Cu478       N480   2.030       .  S
Cu478       N486   2.031       .  S
N479        N480   1.318       .  A
N479        C483   1.349   1_655  A
N480        C481   1.337       .  A
C481        C482   1.376       .  A
C481        H484   1.082       .  S
C482        C483   1.391   1_655  A
C483        H485   1.082       .  S
N486        N487   1.320       .  A
N486        C490   1.335       .  A
N487        C488   1.351       .  A
C488        C489   1.392       .  A
C488        H491   1.082       .  S
C489        C490   1.374       .  A
C489        C987   1.477       .  S
C490        H492   1.082       .  S
N493        N494   1.321       .  A
N493        C497   1.352       .  A
N493       Cu501   2.087       .  S
N494        C495   1.338       .  A
N494       Cu500   2.057       .  S
C495        C496   1.378       .  A
C495        H498   1.082       .  S
C496        C497   1.389       .  A
C496        C568   1.469       .  S
C497        H499   1.082       .  S
Cu500       N503   2.058       .  S
Cu501       N511   2.090       .  S
Cu502       N504   2.091       .  S
Cu502       N510   2.093       .  S
N503        N504   1.320       .  A
N503        C507   1.341       .  A
N504        C505   1.352       .  A
C505        C506   1.391       .  A
C505        H508   1.082       .  S
C506        C507   1.381       .  A
C506        C530   1.478       .  S
C507        H509   1.081       .  S
N510        N511   1.326       .  A
N510        C514   1.344       .  A
N511        C512   1.349       .  A
C512        C513   1.386       .  A
C512        H515   1.082       .  S
C513        C514   1.385       .  A
C513        C964   1.489       .  S
C514        H516   1.082       .  S
N517        N518   1.322       .  A
N517        C521   1.353       .  A
N517       Cu525   2.091       .  S
N518        C519   1.339       .  A
N518       Cu524   2.067       .  S
C519        C520   1.381       .  A
C519        H522   1.082       .  S
C520        C521   1.389       .  A
C520        C544   1.472       .  S
C521        H523   1.082       .  S
Cu524       N527   2.068       .  S
Cu525       N535   2.093       .  S
Cu526       N528   2.082       .  S
Cu526       N534   2.083       .  S
N527        N528   1.320       .  A
N527        C531   1.342       .  A
N528        C529   1.351       .  A
C529        C530   1.388       .  A
C529        H532   1.082       .  S
C530        C531   1.384       .  A
C531        H533   1.081       .  S
N534        N535   1.325       .  A
N534        C538   1.342       .  A
N535        C536   1.350       .  A
C536        C537   1.388       .  A
C536        H539   1.082       .  S
C537        C538   1.383       .  A
C537        C954   1.488       .  S
C538        H540   1.082       .  S
N541        N542   1.322       .  A
N541        C545   1.354       .  A
N541       Cu549   2.098       .  S
N542        C543   1.338       .  A
N542       Cu548   2.058       .  S
C543        C544   1.378       .  A
C543        H546   1.082       .  S
C544        C545   1.391       .  A
C545        H547   1.082       .  S
Cu548       N551   2.059       .  S
Cu549       N559   2.099       .  S
Cu550       N552   2.080       .  S
Cu550       N558   2.082       .  S
N551        N552   1.318       .  A
N551        C555   1.340       .  A
N552        C553   1.351       .  A
C553        C554   1.390       .  A
C553        H556   1.082       .  S
C554        C555   1.383       .  A
C554        C578   1.477       .  S
C555        H557   1.081       .  S
N558        N559   1.326       .  A
N558        C562   1.341       .  A
N559        C560   1.352       .  A
C560        C561   1.388       .  A
C560        H563   1.082       .  S
C561        C562   1.381       .  A
C561        C944   1.486       .  S
C562        H564   1.082       .  S
N565        N566   1.321       .  A
N565        C569   1.351       .  A
N565       Cu573   2.084       .  S
N566        C567   1.339       .  A
N566       Cu572   2.064       .  S
C567        C568   1.380       .  A
C567        H570   1.082       .  S
C568        C569   1.387       .  A
C569        H571   1.082       .  S
Cu572       N575   2.064       .  S
Cu573       N583   2.085       .  S
Cu574       N576   2.082       .  S
Cu574       N582   2.084       .  S
N575        N576   1.320       .  A
N575        C579   1.341       .  A
N576        C577   1.351       .  A
C577        C578   1.389       .  A
C577        H580   1.082       .  S
C578        C579   1.383       .  A
C579        H581   1.081       .  S
N582        N583   1.324       .  A
N582        C586   1.343       .  A
N583        C584   1.347       .  A
C584        C585   1.387       .  A
C584        H587   1.081       .  S
C585        C586   1.386       .  A
C585       C1197   1.490       .  S
C586        H588   1.082       .  S
C589        C590   1.410       .  A
C589        C594   1.409       .  A
C589        C947   1.490       .  S
C590        C591   1.405       .  A
C590        H595   1.084       .  S
C591        C592   1.402       .  A
C591        C937   1.482       .  S
C592        C593   1.399       .  A
C592        H596   1.085       .  S
C593        C594   1.403       .  A
C593        C924   1.483       .  S
C594        H597   1.084       .  S
C598        C599   1.403       .  A
C598        C603   1.406       .  A
C598       C1084   1.472       .  S
C599        C600   1.397       .  A
C599        H604   1.084       .  S
C600        C601   1.395       .  A
C600        C914   1.474       .  S
C601        C602   1.400       .  A
C601        H605   1.085       .  S
C602        C603   1.402       .  A
C602        C934   1.474       .  S
C603        H606   1.083       .  S
C607        C608   1.411       .  A
C607        C612   1.408       .  A
C607        C897   1.492       .  S
C608        C609   1.404       .  A
C608        H613   1.083       .  S
C609        C610   1.398       .  A
C609        C927   1.484       .  S
C610        C611   1.401       .  A
C610        H614   1.085       .  S
C611        C612   1.401       .  A
C611        C904   1.478       .  S
C612        H615   1.084       .  S
C616        C617   1.404       .  A
C616        C621   1.408       .  A
C616       C1057   1.480       .  S
C617        C618   1.396       .  A
C617        H622   1.084       .  S
C618        C619   1.396       .  A
C618        C917   1.475       .  S
C619        C620   1.402       .  A
C619        H623   1.085       .  S
C620        C621   1.405       .  A
C620        C907   1.478       .  S
C621        H624   1.083       .  S
C625        C626   1.402       .  A
C625        C630   1.406       .  A
C625       C1064   1.478       .  S
C626        C627   1.399       .  A
C626        H631   1.084       .  S
C627        C628   1.401       .  A
C627        C874   1.480       .  S
C628        C629   1.405       .  A
C628        H632   1.084       .  S
C629        C630   1.406       .  A
C629        C887   1.484       .  S
C630        H633   1.084       .  S
C634        C635   1.412       .  A
C634        C639   1.411       .  A
C634        C967   1.498       .  S
C635        C636   1.405       .  A
C635        H640   1.083       .  S
C636        C637   1.399       .  A
C636        C884   1.481       .  S
C637        C638   1.396       .  A
C637        H641   1.085       .  S
C638        C639   1.404       .  A
C638        C864   1.480       .  S
C639        H642   1.083       .  S
C643        C644   1.405       .  A
C643        C648   1.411       .  A
C643       C1034   1.482       .  S
C644        C645   1.397       .  A
C644        H649   1.084       .  S
C645        C646   1.396       .  A
C645        C877   1.486       .  S
C646        C647   1.408       .  A
C646        H650   1.084       .  S
C647        C648   1.412       .  A
C647        C854   1.503       .  S
C648        H651   1.081       .  S
C652        C653   1.405       .  A
C652        C657   1.413       .  A
C652        C847   1.492       .  S
C653        C654   1.397       .  A
C653        H658   1.084       .  S
C654        C655   1.397       .  A
C654        C867   1.485       .  S
C655        C656   1.408       .  A
C655        H659   1.083       .  S
C656        C657   1.415       .  A
C656        C857   1.510       .  S
C657        H660   1.079       .  S
N661        N662   1.321       .  A
N661        C665   1.352       .  A
N661       Cu669   2.090       .  S
N662        C663   1.339       .  A
N662       Cu668   2.062       .  S
C663        C664   1.380       .  A
C663        H666   1.082       .  S
C664        C665   1.389       .  A
C664        C736   1.470       .  S
C665        H667   1.082       .  S
Cu668       N671   2.063       .  S
Cu669       N679   2.092       .  S
Cu670       N672   2.089       .  S
Cu670       N678   2.091       .  S
N671        N672   1.320       .  A
N671        C675   1.341       .  A
N672        C673   1.352       .  A
C673        C674   1.390       .  A
C673        H676   1.082       .  S
C674        C675   1.382       .  A
C674        C698   1.479       .  S
C675        H677   1.081       .  S
N678        N679   1.325       .  A
N678        C682   1.345       .  A
N679        C680   1.348       .  A
C680        C681   1.388       .  A
C680        H683   1.082       .  S
C681        C682   1.387       .  A
C681        C844   1.494       .  S
C682        H684   1.082       .  S
N685        N686   1.322       .  A
N685        C689   1.352       .  A
N685       Cu693   2.090       .  S
N686        C687   1.339       .  A
N686       Cu692   2.066       .  S
C687        C688   1.380       .  A
C687        H690   1.082       .  S
C688        C689   1.389       .  A
C688        C712   1.471       .  S
C689        H691   1.082       .  S
Cu692       N695   2.067       .  S
Cu693       N703   2.091       .  S
Cu694       N696   2.083       .  S
Cu694       N702   2.085       .  S
N695        N696   1.319       .  A
N695        C699   1.342       .  A
N696        C697   1.351       .  A
C697        C698   1.389       .  A
C697        H700   1.082       .  S
C698        C699   1.384       .  A
C699        H701   1.081       .  S
N702        N703   1.325       .  A
N702        C706   1.342       .  A
N703        C704   1.350       .  A
C704        C705   1.387       .  A
C704        H707   1.082       .  S
C705        C706   1.383       .  A
C705        C834   1.487       .  S
C706        H708   1.082       .  S
N709        N710   1.321       .  A
N709        C713   1.353       .  A
N709       Cu717   2.093   1_554  S
N710        C711   1.338       .  A
N710       Cu716   2.055   1_554  S
C711        C712   1.378       .  A
C711        H714   1.082       .  S
C712        C713   1.391       .  A
C713        H715   1.082       .  S
Cu716       N719   2.057       .  S
Cu717       N727   2.096       .  S
Cu718       N720   2.087       .  S
Cu718       N726   2.088       .  S
N719        N720   1.320       .  A
N719        C723   1.340       .  A
N720        C721   1.352       .  A
C721        C722   1.390       .  A
C721        H724   1.082       .  S
C722        C723   1.381       .  A
C722        C746   1.476       .  S
C723        H725   1.082       .  S
N726        N727   1.325       .  A
N726        C730   1.343       .  A
N727        C728   1.350       .  A
C728        C729   1.390       .  A
C728        H731   1.082       .  S
C729        C730   1.385       .  A
C729        C894   1.494       .  S
C730        H732   1.082       .  S
N733        N734   1.322       .  A
N733        C737   1.352       .  A
N733       Cu741   2.093   1_554  S
N734        C735   1.339       .  A
N734       Cu740   2.062   1_554  S
C735        C736   1.378       .  A
C735        H738   1.082       .  S
C736        C737   1.389       .  A
C737        H739   1.082       .  S
Cu740       N743   2.062       .  S
Cu741       N751   2.094       .  S
Cu742       N744   2.078       .  S
Cu742       N750   2.081       .  S
N743        N744   1.319       .  A
N743        C747   1.341       .  A
N744        C745   1.351       .  A
C745        C746   1.388       .  A
C745        H748   1.082       .  S
C746        C747   1.383       .  A
C747        H749   1.082       .  S
N750        N751   1.325       .  A
N750        C754   1.341       .  A
N751        C752   1.350       .  A
C752        C753   1.389       .  A
C752        H755   1.082       .  S
C753        C754   1.384       .  A
C753       C1167   1.491       .  S
C754        H756   1.082       .  S
C757        C758   1.413       .  A
C757        C762   1.412       .  A
C757        C957   1.498       .  S
C758        C759   1.405       .  A
C758        H763   1.083       .  S
C759        C760   1.398       .  A
C759        C824   1.479       .  S
C760        C761   1.394       .  A
C760        H764   1.085       .  S
C761        C762   1.402       .  A
C761        C814   1.478       .  S
C762        H765   1.083       .  S
C766        C767   1.404       .  A
C766        C771   1.407       .  A
C766       C1264   1.478       .  S
C767        C768   1.402       .  A
C767        H772   1.084       .  S
C768        C769   1.401       .  A
C768        C827   1.476       .  S
C769        C770   1.401       .  A
C769        H773   1.085       .  S
C770        C771   1.403       .  A
C770        C804   1.490       .  S
C771        H774   1.084       .  S
C775        C776   1.407       .  A
C775        C780   1.413       .  A
C775        C837   1.490       .  S
C776        C777   1.400       .  A
C776        H781   1.084       .  S
C777        C778   1.396       .  A
C777        C817   1.477       .  S
C778        C779   1.400       .  A
C778        H782   1.085       .  S
C779        C780   1.408       .  A
C779        C794   1.484       .  S
C780        H783   1.083       .  S
C784        C785   1.409       .  A
C784        C789   1.410       .  A
C784        C977   1.494       .  S
C785        C786   1.400       .  A
C785        H790   1.084       .  S
C786        C787   1.396       .  A
C786        C807   1.482       .  S
C787        C788   1.399       .  A
C787        H791   1.085       .  S
C788        C789   1.403       .  A
C788        C797   1.475       .  S
C789        H792   1.083       .  S
C793        C794   1.413       .  A
C793        C798   1.406       .  A
C793       Br800   1.920       .  S
C794        C795   1.411       .  A
C795        C796   1.407       .  A
C795       Br802   1.930       .  S
C796        C797   1.409       .  A
C796       Br801   1.929       .  S
C797        C798   1.404       .  A
C798       Br799   1.931       .  S
C803        C804   1.415       .  A
C803        C808   1.407       .  A
C803       Br810   1.925       .  S
C804        C805   1.413       .  A
C805        C806   1.408       .  A
C805       Br812   1.932       .  S
C806        C807   1.411       .  A
C806       Br811   1.932       .  S
C807        C808   1.408       .  A
C808       Br809   1.934       .  S
C813        C814   1.409       .  A
C813        C818   1.410       .  A
C813       Br820   1.928       .  S
C814        C815   1.411       .  A
C815        C816   1.404       .  A
C815       Br822   1.930       .  S
C816        C817   1.407       .  A
C816       Br821   1.932       .  S
C817        C818   1.410       .  A
C818       Br819   1.928       .  S
C823        C824   1.410       .  A
C823        C828   1.408       .  A
C823       Br830   1.929       .  S
C824        C825   1.410       .  A
C825        C826   1.406       .  A
C825       Br832   1.929       .  S
C826        C827   1.408       .  A
C826       Br831   1.930       .  S
C827        C828   1.409       .  A
C828       Br829   1.929       .  S
C833        C834   1.414       .  A
C833        C838   1.413       .  A
C833       Br840   1.929       .  S
C834        C835   1.411       .  A
C835        C836   1.405       .  A
C835       Br842   1.935       .  S
C836        C837   1.411       .  A
C836       Br841   1.922       .  S
C837        C838   1.413       .  A
C838       Br839   1.932       .  S
C843        C844   1.416       .  A
C843        C848   1.411       .  A
C843       Br850   1.932       .  S
C844        C845   1.416       .  A
C845        C846   1.410       .  A
C845       Br852   1.932       .  S
C846        C847   1.413       .  A
C846       Br851   1.935       .  S
C847        C848   1.412       .  A
C848       Br849   1.932       .  S
C853        C854   1.411       .  A
C853        C858   1.390       .  A
C853       Br860   1.938       .  S
C854        C855   1.419       .  A
C855        C856   1.422       .  A
C855       Br862   1.929       .  S
C856        C857   1.424       .  A
C856       Br861   1.929       .  S
C857        C858   1.418       .  A
C858       Br859   1.937       .  S
C863        C864   1.409       .  A
C863        C868   1.413       .  A
C863       Br870   1.927       .  S
C864        C865   1.408       .  A
C865        C866   1.403       .  A
C865       Br872   1.933       .  S
C866        C867   1.415       .  A
C866       Br871   1.937       .  S
C867        C868   1.412       .  A
C868       Br869   1.927       .  S
C873        C874   1.408       .  A
C873        C878   1.405       .  A
C873       Br880   1.934       .  S
C874        C875   1.410       .  A
C875        C876   1.411       .  A
C875       Br882   1.928       .  S
C876        C877   1.411       .  A
C876       Br881   1.928       .  S
C877        C878   1.417       .  A
C878       Br879   1.934       .  S
C883        C884   1.409       .  A
C883        C888   1.407       .  A
C883       Br890   1.931       .  S
C884        C885   1.410       .  A
C885        C886   1.409       .  A
C885       Br892   1.929       .  S
C886        C887   1.411       .  A
C886       Br891   1.929       .  S
C887        C888   1.411       .  A
C888       Br889   1.926       .  S
C893        C894   1.416       .  A
C893        C898   1.406       .  A
C893       Br900   1.934       .  S
C894        C895   1.416       .  A
C895        C896   1.413       .  A
C895       Br902   1.931       .  S
C896        C897   1.414       .  A
C896       Br901   1.933       .  S
C897        C898   1.413       .  A
C898       Br899   1.935       .  S
C903        C904   1.408       .  A
C903        C908   1.406       .  A
C903       Br910   1.929       .  S
C904        C905   1.410       .  A
C905        C906   1.406       .  A
C905       Br912   1.929       .  S
C906        C907   1.409       .  A
C906       Br911   1.929       .  S
C907        C908   1.411       .  A
C908       Br909   1.930       .  S
C913        C914   1.409       .  A
C913        C918   1.409       .  A
C913       Br920   1.928       .  S
C914        C915   1.409       .  A
C915        C916   1.400       .  A
C915       Br922   1.934       .  S
C916        C917   1.411       .  A
C916       Br921   1.933       .  S
C917        C918   1.409       .  A
C918       Br919   1.928       .  S
C923        C924   1.411       .  A
C923        C928   1.412       .  A
C923       Br930   1.928       .  S
C924        C925   1.409       .  A
C925        C926   1.406       .  A
C925       Br932   1.932       .  S
C926        C927   1.412       .  A
C926       Br931   1.932       .  S
C927        C928   1.409       .  A
C928       Br929   1.927       .  S
C933        C934   1.404       .  A
C933        C938   1.404       .  A
C933       Br940   1.931       .  S
C934        C935   1.409       .  A
C935        C936   1.408       .  A
C935       Br942   1.929       .  S
C936        C937   1.410       .  A
C936       Br941   1.929       .  S
C937        C938   1.412       .  A
C938       Br939   1.920       .  S
C943        C944   1.410       .  A
C943        C948   1.404       .  A
C943       Br950   1.935       .  S
C944        C945   1.413       .  A
C945        C946   1.414       .  A
C945       Br952   1.928       .  S
C946        C947   1.413       .  A
C946       Br951   1.931       .  S
C947        C948   1.411       .  A
C948       Br949   1.923       .  S
C953        C954   1.412       .  A
C953        C958   1.414       .  A
C953       Br960   1.930       .  S
C954        C955   1.410       .  A
C955        C956   1.405       .  A
C955       Br962   1.936       .  S
C956        C957   1.417       .  A
C956       Br961   1.931       .  S
C957        C958   1.418       .  A
C958       Br959   1.932       .  S
C963        C964   1.410       .  A
C963        C968   1.407       .  A
C963       Br970   1.936       .  S
C964        C965   1.412       .  A
C965        C966   1.414       .  A
C965       Br972   1.930       .  S
C966        C967   1.417       .  A
C966       Br971   1.932       .  S
C967        C968   1.418       .  A
C968       Br969   1.930       .  S
C973        C974   1.418       .  A
C973        C978   1.409       .  A
C973       Br980   1.934       .  S
C974        C975   1.421       .  A
C975        C976   1.408       .  A
C975       Br982   1.932       .  S
C976        C977   1.412       .  A
C976       Br981   1.937       .  S
C977        C978   1.414       .  A
C978       Br979   1.933       .  S
C983        C984   1.411       .  A
C983        C988   1.409       .  A
C983       Br990   1.930       .  S
C984        C985   1.409       .  A
C985        C986   1.405       .  A
C985       Br992   1.932       .  S
C986        C987   1.412       .  A
C986       Br991   1.933       .  S
C987        C988   1.411       .  A
C988       Br989   1.930       .  S
C993        C994   1.409       .  A
C993        C998   1.404       .  A
C993      Br1000   1.931       .  S
C994        C995   1.408       .  A
C995        C996   1.406       .  A
C995      Br1002   1.930       .  S
C996        C997   1.410       .  A
C996      Br1001   1.929       .  S
C997        C998   1.408       .  A
C998       Br999   1.929       .  S
C1003      C1004   1.409       .  A
C1003      C1008   1.399       .  A
C1003     Br1010   1.933       .  S
C1004      C1005   1.408       .  A
C1005      C1006   1.410       .  A
C1005     Br1012   1.926       .  S
C1006      C1007   1.408       .  A
C1006     Br1011   1.926       .  S
C1007      C1008   1.409       .  A
C1008     Br1009   1.932       .  S
C1013      C1014   1.409       .  A
C1013      C1018   1.411       .  A
C1013     Br1020   1.928       .  S
C1014      C1015   1.409       .  A
C1015      C1016   1.406       .  A
C1015     Br1022   1.930       .  S
C1016      C1017   1.409       .  A
C1016     Br1021   1.930       .  S
C1017      C1018   1.409       .  A
C1018     Br1019   1.927       .  S
C1023      C1024   1.411       .  A
C1023      C1028   1.408       .  A
C1023     Br1030   1.929       .  S
C1024      C1025   1.409       .  A
C1025      C1026   1.405       .  A
C1025     Br1032   1.930       .  S
C1026      C1027   1.408       .  A
C1026     Br1031   1.929       .  S
C1027      C1028   1.408       .  A
C1028     Br1029   1.929       .  S
C1033      C1034   1.410       .  A
C1033      C1038   1.407       .  A
C1033     Br1040   1.932       .  S
C1034      C1035   1.411       .  A
C1035      C1036   1.410       .  A
C1035     Br1042   1.930       .  S
C1036      C1037   1.413       .  A
C1036     Br1041   1.931       .  S
C1037      C1038   1.412       .  A
C1038     Br1039   1.931       .  S
C1043      C1044   1.414       .  A
C1043      C1048   1.409       .  A
C1043     Br1050   1.932       .  S
C1044      C1045   1.415       .  A
C1045      C1046   1.403       .  A
C1045     Br1052   1.933       .  S
C1046      C1047   1.411       .  A
C1046     Br1051   1.936       .  S
C1047      C1048   1.410       .  A
C1048     Br1049   1.930       .  S
C1053      C1054   1.407       .  A
C1053      C1058   1.405       .  A
C1053     Br1060   1.931       .  S
C1054      C1055   1.409       .  A
C1055      C1056   1.408       .  A
C1055     Br1062   1.929       .  S
C1056      C1057   1.410       .  A
C1056     Br1061   1.930       .  S
C1057      C1058   1.414       .  A
C1058     Br1059   1.933       .  S
C1063      C1064   1.409       .  A
C1063      C1068   1.406       .  A
C1063     Br1070   1.928       .  S
C1064      C1065   1.407       .  A
C1065      C1066   1.408       .  A
C1065     Br1072   1.930       .  S
C1066      C1067   1.413       .  A
C1066     Br1071   1.930       .  S
C1067      C1068   1.412       .  A
C1068     Br1069   1.933       .  S
C1073      C1074   1.412       .  A
C1073      C1078   1.411       .  A
C1073     Br1080   1.930       .  S
C1074      C1075   1.412       .  A
C1075      C1076   1.404       .  A
C1075     Br1082   1.936       .  S
C1076      C1077   1.415       .  A
C1076     Br1081   1.933       .  S
C1077      C1078   1.413       .  A
C1078     Br1079   1.931       .  S
C1083      C1084   1.406       .  A
C1083      C1088   1.406       .  A
C1083     Br1090   1.930       .  S
C1084      C1085   1.408       .  A
C1085      C1086   1.405       .  A
C1085     Br1092   1.932       .  S
C1086      C1087   1.411       .  A
C1086     Br1091   1.931       .  S
C1087      C1088   1.412       .  A
C1088     Br1089   1.930       .  S
C1093      C1094   1.415       .  A
C1093      C1098   1.407       .  A
C1093     Br1100   1.931       .  S
C1094      C1095   1.413       .  A
C1095      C1096   1.404       .  A
C1095     Br1102   1.934       .  S
C1096      C1097   1.409       .  A
C1096     Br1101   1.928       .  S
C1097      C1098   1.408       .  A
C1098     Br1099   1.931       .  S
C1103      C1104   1.414       .  A
C1103      C1108   1.406       .  A
C1103     Br1110   1.929       .  S
C1104      C1105   1.415       .  A
C1105      C1106   1.407       .  A
C1105     Br1112   1.931       .  S
C1106      C1107   1.408       .  A
C1106     Br1111   1.931       .  S
C1107      C1108   1.408       .  A
C1108     Br1109   1.933       .  S
C1113      C1114   1.409       .  A
C1113      C1118   1.404       .  A
C1113     Br1120   1.928       .  S
C1114      C1115   1.408       .  A
C1115      C1116   1.408       .  A
C1115     Br1122   1.927       .  S
C1116      C1117   1.409       .  A
C1116     Br1121   1.927       .  S
C1117      C1118   1.408       .  A
C1118     Br1119   1.927       .  S
C1123      C1124   1.412       .  A
C1123      C1128   1.405       .  A
C1123     Br1130   1.923       .  S
C1124      C1125   1.412       .  A
C1125      C1126   1.408       .  A
C1125     Br1132   1.930       .  S
C1126      C1127   1.409       .  A
C1126     Br1131   1.930       .  S
C1127      C1128   1.409       .  A
C1128     Br1129   1.935       .  S
C1133      C1134   1.412       .  A
C1133      C1138   1.409       .  A
C1133     Br1140   1.932       .  S
C1134      C1135   1.413       .  A
C1135      C1136   1.402       .  A
C1135     Br1142   1.936       .  S
C1136      C1137   1.414       .  A
C1136     Br1141   1.935       .  S
C1137      C1138   1.415       .  A
C1138     Br1139   1.932       .  S
C1143      C1144   1.409       .  A
C1143      C1148   1.408       .  A
C1143     Br1150   1.927       .  S
C1144      C1145   1.407       .  A
C1145      C1146   1.403       .  A
C1145     Br1152   1.931       .  S
C1146      C1147   1.411       .  A
C1146     Br1151   1.932       .  S
C1147      C1148   1.408       .  A
C1148     Br1149   1.928       .  S
C1153      C1154   1.409       .  A
C1153      C1158   1.407       .  A
C1153     Br1160   1.929       .  S
C1154      C1155   1.408       .  A
C1155      C1156   1.405       .  A
C1155     Br1162   1.929       .  S
C1156      C1157   1.408       .  A
C1156     Br1161   1.928       .  S
C1157      C1158   1.409       .  A
C1158     Br1159   1.929       .  S
C1163      C1164   1.413       .  A
C1163      C1168   1.413       .  A
C1163     Br1170   1.932       .  S
C1164      C1165   1.412       .  A
C1165      C1166   1.405       .  A
C1165     Br1172   1.925       .  S
C1166      C1167   1.413       .  A
C1166     Br1171   1.936       .  S
C1167      C1168   1.416       .  A
C1168     Br1169   1.929       .  S
C1173      C1174   1.409       .  A
C1173      C1178   1.407       .  A
C1173     Br1180   1.929       .  S
C1174      C1175   1.407       .  A
C1175      C1176   1.408       .  A
C1175     Br1182   1.930       .  S
C1176      C1177   1.412       .  A
C1176     Br1181   1.930       .  S
C1177      C1178   1.411       .  A
C1178     Br1179   1.932       .  S
C1183      C1184   1.412       .  A
C1183      C1188   1.409       .  A
C1183     Br1190   1.926       .  S
C1184      C1185   1.408       .  A
C1185      C1186   1.405       .  A
C1185     Br1192   1.932       .  S
C1186      C1187   1.411       .  A
C1186     Br1191   1.924       .  S
C1187      C1188   1.409       .  A
C1188     Br1189   1.930       .  S
C1193      C1194   1.412       .  A
C1193      C1198   1.408       .  A
C1193     Br1200   1.933       .  S
C1194      C1195   1.412       .  A
C1195      C1196   1.409       .  A
C1195     Br1202   1.935       .  S
C1196      C1197   1.416       .  A
C1196     Br1201   1.932       .  S
C1197      C1198   1.416       .  A
C1198     Br1199   1.933       .  S
C1203      C1204   1.412       .  A
C1203      C1208   1.410       .  A
C1203     Br1210   1.929       .  S
C1204      C1205   1.418       .  A
C1205      C1206   1.405       .  A
C1205     Br1212   1.936       .  S
C1206      C1207   1.407       .  A
C1206     Br1211   1.935       .  S
C1207      C1208   1.410       .  A
C1208     Br1209   1.929       .  S
C1213      C1214   1.418       .  A
C1213      C1218   1.405       .  A
C1213     Br1220   1.933       .  S
C1214      C1215   1.412       .  A
C1215      C1216   1.411       .  A
C1215     Br1222   1.929       .  S
C1216      C1217   1.410       .  A
C1216     Br1221   1.928       .  S
C1217      C1218   1.407       .  A
C1218     Br1219   1.935       .  S
C1223      C1224   1.420       .  A
C1223      C1228   1.418       .  A
C1223     Br1230   1.930       .  S
C1224      C1225   1.414       .  A
C1225      C1226   1.391       .  A
C1225     Br1232   1.939       .  S
C1226      C1227   1.417       .  A
C1226     Br1231   1.939       .  S
C1227      C1228   1.422       .  A
C1228     Br1229   1.930       .  S
C1233      C1234   1.408       .  A
C1233      C1238   1.406       .  A
C1233     Br1240   1.929       .  S
C1234      C1235   1.405       .  A
C1235      C1236   1.405       .  A
C1235     Br1242   1.930       .  S
C1236      C1237   1.413       .  A
C1236     Br1241   1.932       .  S
C1237      C1238   1.411       .  A
C1238     Br1239   1.930       .  S
C1243      C1244   1.410       .  A
C1243      C1248   1.406       .  A
C1243     Br1250   1.931       .  S
C1244      C1245   1.411       .  A
C1245      C1246   1.408       .  A
C1245     Br1252   1.931       .  S
C1246      C1247   1.411       .  A
C1246     Br1251   1.930       .  S
C1247      C1248   1.409       .  A
C1248     Br1249   1.932       .  S
C1253      C1254   1.418       .  A
C1253      C1258   1.410       .  A
C1253     Br1260   1.931       .  S
C1254      C1255   1.416       .  A
C1255      C1256   1.402       .  A
C1255     Br1262   1.934       .  S
C1256      C1257   1.405       .  A
C1256     Br1261   1.926       .  S
C1257      C1258   1.406       .  A
C1258     Br1259   1.929       .  S
C1263      C1264   1.407       .  A
C1263      C1268   1.409       .  A
C1263     Br1270   1.929       .  S
C1264      C1265   1.408       .  A
C1265      C1266   1.405       .  A
C1265     Br1272   1.928       .  S
C1266      C1267   1.412       .  A
C1266     Br1271   1.931       .  S
C1267      C1268   1.413       .  A
C1268     Br1269   1.930       .  S
