geometry optimzed in LAMMPS
_audit_creation_date              2020-12-01 
_audit_creation_method            'lammps2cif' 
_symmetry_space_group_name_H-M    'P1' 
_symmetry_Int_Tables_number       1 
_symmetry_cell_setting            triclinic 
loop_ 
_symmetry_equiv_pos_as_xyz 
  x,y,z 
_cell_length_a                    60.6076443 
_cell_length_b                    60.74158576898967 
_cell_length_c                    60.49988776824147 
_cell_angle_alpha                 91.39478628074185 
_cell_angle_beta                  89.67096846064344 
_cell_angle_gamma                 88.60940185629924 
loop_ 
_atom_site_label 
_atom_site_type_symbol 
_atom_site_fract_x 
_atom_site_fract_y 
_atom_site_fract_z 
_atom_site_charge 
Zr1        Zr  0.74891375  0.80981216  0.79286899     2.17500
O2          O  0.71502463  0.79377758  0.77921727    -0.51200
O3          O  0.73301913  0.83982493  0.81535064    -0.74400
O4          O  0.73272532  0.79447681  0.82718714    -0.81200
O5          O  0.76050916  0.85590821  0.75267315    -0.82900
O6          O  0.76097015  0.77602729  0.84363969    -0.78500
O7          O  0.73261940  0.84180827  0.77285367    -0.90200
O8          O  0.76239068  0.85637457  0.83151656    -0.76100
O9          O  0.77304109  0.80715837  0.82347189    -0.85600
O10         O  0.77455520  0.83884421  0.79088781    -0.85300
O11         O  0.76800935  0.77407375  0.78814276    -0.72100
O12         O  0.76944882  0.80232026  0.75860351    -0.84200
Zr13       Zr  0.83678745  0.79972045  0.78546005     2.26400
Zr14       Zr  0.79207375  0.77264760  0.81920038     2.06300
Zr15       Zr  0.79313224  0.83307286  0.75658419     2.10000
Zr16       Zr  0.79688277  0.83711431  0.82251941     1.78800
O17         O  0.78067139  0.82650826  0.71888344    -0.93000
O18         O  0.79204834  0.83000237  0.86171700    -0.40800
O19         O  0.81704693  0.83416431  0.78826560    -0.77400
O20         O  0.81676412  0.80297865  0.81965970    -0.96100
O21         O  0.81469372  0.76781500  0.78730772    -0.89400
O22         O  0.81398696  0.79960564  0.75352947    -0.92300
C23         C  0.74173996  0.85492922  0.82733191     1.01500
C24         C  0.74100032  0.85695857  0.76087556     1.14400
C25         C  0.74129059  0.78403242  0.84361373     1.05200
O26         O  0.79646584  0.75964545  0.85670075    -0.94400
O27         O  0.82750431  0.75873320  0.83032824    -0.90200
O28         O  0.85482287  0.77426878  0.81053872    -0.83300
C29         C  0.84781939  0.76176869  0.82578512     1.11800
O30         O  0.76300595  0.75544555  0.73112259    -0.96400
Zr31       Zr  0.79191824  0.76816182  0.75593528     1.88900
O32         O  0.85129038  0.77732176  0.75604597    -0.73100
O33         O  0.78075958  0.73512800  0.81112718    -0.52300
O34         O  0.78105243  0.73068820  0.76335932    -0.97000
O35         O  0.80023435  0.76850802  0.71639969    -0.54200
O36         O  0.82935815  0.74840816  0.75545513    -0.73600
C37         C  0.84890206  0.75671445  0.75528743     0.98800
O38         O  0.87273124  0.80987268  0.79969452    -0.62400
O39         O  0.80303933  0.87117234  0.75061676    -0.57200
O40         O  0.85417236  0.82527180  0.76082386    -0.93900
O41         O  0.82765672  0.84004646  0.73881956    -0.92300
O42         O  0.80367103  0.87635540  0.82144684    -0.92700
O43         O  0.82966233  0.84891148  0.84208726    -0.91400
C44         C  0.84773781  0.83708842  0.74464269     1.17600
H45         H  0.76801910  0.85341293  0.79155809     0.33600
H46         H  0.82666444  0.80199323  0.83202019     0.44400
H47         H  0.82226354  0.79912637  0.73983755     0.37900
H48         H  0.75728215  0.76260112  0.78873127     0.34400
H49         H  0.77599314  0.83171454  0.86459431     0.26200
H50         H  0.79391633  0.72586079  0.81450697     0.32100
H51         H  0.79447362  0.72146326  0.76036615     0.38100
H52         H  0.79406462  0.88184262  0.80949250     0.32500
H53         H  0.79390569  0.87621961  0.73811201     0.31400
H54         H  0.79019503  0.83573306  0.70974356     0.33100
H55         H  0.81643150  0.76622108  0.71521373     0.32000
H56         H  0.83480080  0.83607868  0.85060224     0.36000
H57         H  0.88329439  0.80644833  0.78747345     0.28800
H58         H  0.71668608  0.79353721  0.76292292     0.33000
H59         H  0.76867795  0.74148928  0.72415776     0.35900
H60         H  0.79720678  0.87954506  0.76371660     0.28500
H61         H  0.87198519  0.82614010  0.80077639     0.41300
H62         H  0.80190810  0.77248505  0.86527935     0.31400
H63         H  0.79520820  0.81403367  0.86310342     0.39000
H64         H  0.79750567  0.78391151  0.71197752     0.30900
H65         H  0.77002505  0.73199095  0.82297188     0.30900
H66         H  0.70346471  0.80523882  0.78238913     0.31200
Zr67       Zr  0.79354397  0.92740978  0.96157027     2.17500
O68         O  0.78289754  0.94331191  0.99748858    -0.51200
O69         O  0.81723390  0.89726917  0.97332549    -0.74400
O70         O  0.77657739  0.89510161  0.97799319    -0.81200
O71         O  0.83805704  0.96752293  0.94438002    -0.82900
O72         O  0.74240715  0.89513002  0.96383225    -0.78500
O73         O  0.82738974  0.94602639  0.97274231    -0.90200
O74         O  0.81917853  0.87481147  0.94274383    -0.76100
O75         O  0.78405386  0.89740764  0.93798158    -0.85600
O76         O  0.81987599  0.92604193  0.93202358    -0.85300
O77         O  0.75638481  0.93524267  0.94937148    -0.72100
O78         O  0.78929111  0.96195904  0.94285783    -0.84200
Zr79       Zr  0.76902916  0.93394388  0.87792115     2.26400
Zr80       Zr  0.74736219  0.90434934  0.92580766     2.06300
Zr81       Zr  0.81496989  0.95951067  0.91256029     2.10000
Zr82       Zr  0.81110557  0.89513999  0.90976246     1.78800
O83         O  0.81568932  0.99950039  0.91578800    -0.93000
O84         O  0.80488296  0.85650766  0.90065414    -0.40800
O85         O  0.80654562  0.92815047  0.88955156    -0.77400
O86         O  0.77448843  0.89999579  0.89656199    -0.96100
O87         O  0.74255886  0.93782338  0.90692463    -0.89400
O88         O  0.77836680  0.96581265  0.89969501    -0.92300
C89         C  0.82186800  0.87879742  0.96346981     1.01500
C90         C  0.84054626  0.95966304  0.96376153     1.14400
C91         C  0.75746673  0.88660965  0.97572494     1.05200
O92         O  0.74036147  0.86532674  0.92971474    -0.94400
O93         O  0.73001151  0.88865493  0.89330045    -0.90200
O94         O  0.74574122  0.90466373  0.86369972    -0.83300
C95         C  0.73303016  0.89052809  0.87246439     1.11800
O96         O  0.74225810  0.98502606  0.96543858    -0.96400
Zr97       Zr  0.75247311  0.96893188  0.92938152     1.88900
O98         O  0.73387687  0.95313833  0.88079366    -0.73100
O99         O  0.70857645  0.91410924  0.93186328    -0.52300
O100        O  0.71280727  0.96746059  0.93567830    -0.97000
O101        O  0.76262279  0.00748346  0.93247449    -0.54200
O102        O  0.73763886  0.98597380  0.89623256    -0.73600
C103        C  0.73207051  0.97393565  0.87971662     0.98800
O104        O  0.77027626  0.93078929  0.83761069    -0.62400
O105        O  0.85364797  0.95683198  0.90170248    -0.57200
O106        O  0.78920868  0.95903146  0.85519996    -0.93900
O107        O  0.81901535  0.97121590  0.87444890    -0.92300
O108        O  0.85125197  0.89579073  0.91015205    -0.92700
O109        O  0.82628155  0.88403582  0.87374240    -0.91400
C110        C  0.80690354  0.97011298  0.85709939     1.17600
H111        H  0.83475182  0.92417133  0.93735208     0.33600
H112        H  0.77213642  0.88709636  0.88735623     0.44400
H113        H  0.77786892  0.97905598  0.89120039     0.37900
H114        H  0.74657415  0.93622968  0.96202158     0.34400
H115        H  0.81837525  0.84856374  0.90558739     0.26200
H116        H  0.70108576  0.89980183  0.93181295     0.32100
H117        H  0.70658440  0.98068638  0.92850451     0.38100
H118        H  0.85572059  0.88056534  0.91390224     0.32500
H119        H  0.85995688  0.97109669  0.90631729     0.31400
H120        H  0.83049187  0.00329359  0.91025162     0.33100
H121        H  0.74845780  0.01591493  0.93189391     0.32000
H122        H  0.83143330  0.89778253  0.86715957     0.36000
H123        H  0.77586173  0.91562632  0.83420490     0.28800
H124        H  0.76930696  0.93558514  0.00152841     0.33000
H125        H  0.73064393  0.99633086  0.96258707     0.35900
H126        H  0.86039316  0.94598137  0.91175666     0.28500
H127        H  0.75476431  0.93099412  0.83258908     0.41300
H128        H  0.75520918  0.85821398  0.93035826     0.31400
H129        H  0.79323453  0.85214444  0.91109989     0.39000
H130        H  0.76999056  0.01054273  0.91827001     0.30900
H131        H  0.70768929  0.91945087  0.94744301     0.30900
H132        H  0.77771940  0.95847057  0.99423103     0.31200
Zr133      Zr  0.95186867  0.92282551  0.81326188     2.17500
O134        O  0.98544657  0.94233501  0.80513737    -0.51200
O135        O  0.96585159  0.89560743  0.83888073    -0.74400
O136        O  0.96079853  0.94204411  0.84800541    -0.81200
O137        O  0.95961154  0.88458686  0.76292100    -0.82900
O138        O  0.92777080  0.95357981  0.86287885    -0.78500
O139        O  0.97700222  0.89556074  0.79431183    -0.90200
O140        O  0.93782043  0.87168453  0.84278986    -0.76100
O141        O  0.92194485  0.91710209  0.83814918    -0.85600
O142        O  0.93333663  0.89097455  0.80027306    -0.85300
O143        O  0.92777768  0.95535751  0.81177067    -0.72100
O144        O  0.93962245  0.93212551  0.77651917    -0.84200
Zr145      Zr  0.86833083  0.92369838  0.78697947     2.26400
Zr146      Zr  0.89777524  0.94856835  0.83668918     2.06300
Zr147      Zr  0.92217625  0.89936862  0.76375681     2.10000
Zr148      Zr  0.90421170  0.88505579  0.82511119     1.78800
O149        O  0.93644304  0.91164192  0.72858063    -0.93000
O150        O  0.89332303  0.88227644  0.86368860    -0.40800
O151        O  0.89218686  0.89189070  0.78826760    -0.77400
O152        O  0.87923675  0.91622084  0.82419639    -0.96100
O153        O  0.88512960  0.95607979  0.80046516    -0.89400
O154        O  0.89756611  0.93039225  0.76166704    -0.92300
C155        C  0.95767691  0.87788700  0.84618456     1.01500
C156        C  0.97562021  0.88332348  0.77662282     1.14400
C157        C  0.94883529  0.95056014  0.86380966     1.05200
O158        O  0.88019335  0.93598720  0.87011626    -0.94400
O159        O  0.86055660  0.96514911  0.83562225    -0.90200
O160        O  0.84353556  0.95059993  0.80526784    -0.83300
C161        C  0.84431776  0.96391163  0.82205989     1.11800
O162        O  0.94634243  0.98436575  0.76801495    -0.96400
Zr163      Zr  0.91353444  0.96320495  0.77535526     1.88900
O164        O  0.85559274  0.94751179  0.75859175    -0.73100
O165        O  0.89793700  0.98684708  0.84986067    -0.52300
O166        O  0.91164796  0.00055600  0.79092067    -0.97000
O167        O  0.91859637  0.96768783  0.73569802    -0.54200
O168        O  0.87616993  0.97761683  0.76419029    -0.73600
C169        C  0.85829329  0.96820296  0.75764322     0.98800
O170        O  0.83321514  0.90643348  0.79392618    -0.62400
O171        O  0.92366166  0.86100893  0.75067822    -0.57200
O172        O  0.86012006  0.89880510  0.75654401    -0.93900
O173        O  0.89255256  0.88609849  0.74115385    -0.92300
O174        O  0.90950845  0.84696875  0.81243224    -0.92700
O175        O  0.87146636  0.86298957  0.82783727    -0.91400
C176        C  0.87147379  0.88701530  0.74252730     1.17600
H177        H  0.94213365  0.87755296  0.80043334     0.33600
H178        H  0.86635629  0.91380774  0.83322441     0.44400
H179        H  0.89244415  0.93193598  0.74667892     0.37900
H180        H  0.93572446  0.96798823  0.81716506     0.34400
H181        H  0.90266999  0.89294270  0.87166938     0.26200
H182        H  0.89611148  0.98616759  0.86610804     0.32100
H183        H  0.89879181  0.00071248  0.80110075     0.38100
H184        H  0.90794863  0.84745466  0.79617240     0.32500
H185        H  0.93373259  0.86058928  0.73771865     0.31400
H186        H  0.93202833  0.90015637  0.71770136     0.33100
H187        H  0.90353677  0.96785842  0.72944335     0.32000
H188        H  0.86322140  0.86598313  0.81411012     0.36000
H189        H  0.83671914  0.89042573  0.79342454     0.28800
H190        H  0.99555546  0.93871026  0.81739368     0.33000
H191        H  0.94160190  0.99600856  0.75776591     0.35900
H192        H  0.93172823  0.85283260  0.76219489     0.28500
H193        H  0.82991512  0.90986086  0.80969887     0.41300
H194        H  0.89228460  0.93457143  0.88095620     0.31400
H195        H  0.87824171  0.88887508  0.86467251     0.39000
H196        H  0.92538305  0.95359732  0.73025171     0.30900
H197        H  0.91324227  0.99171677  0.84761868     0.30900
H198        H  0.98139062  0.95808485  0.80768344     0.31200
Zr199      Zr  0.87208363  0.78610589  0.92885029     2.17500
O200        O  0.83317245  0.79327559  0.92047808    -0.51200
O201        O  0.86827635  0.74974787  0.94233474    -0.74400
O202        O  0.86113378  0.76597010  0.89554787    -0.81200
O203        O  0.86839621  0.83404065  0.97007996    -0.82900
O204        O  0.89183984  0.75086555  0.87884603    -0.78500
O205        O  0.84733216  0.80853375  0.95246055    -0.90200
O206        O  0.88258040  0.74852951  0.97562682    -0.76100
O207        O  0.89995389  0.75787466  0.92863502    -0.85600
O208        O  0.89068691  0.78918425  0.96368084    -0.85300
O209        O  0.89398847  0.79449643  0.89744697    -0.72100
O210        O  0.88606753  0.82251545  0.93169242    -0.84200
Zr211      Zr  0.95704817  0.80697459  0.93066015     2.26400
Zr212      Zr  0.92266464  0.76642541  0.89798581     2.06300
Zr213      Zr  0.90688489  0.82441508  0.96522253     2.10000
Zr214      Zr  0.91904155  0.76142222  0.96273180     1.78800
O215        O  0.89998230  0.86314887  0.97483565    -0.93000
O216        O  0.92312735  0.72191998  0.95521668    -0.40800
O217        O  0.93584346  0.79726622  0.96311416    -0.77400
O218        O  0.94294590  0.76984112  0.93169128    -0.96100
O219        O  0.93587442  0.80307755  0.89806853    -0.89400
O220        O  0.92791592  0.83383217  0.93359625    -0.92300
C221        C  0.86595142  0.74650786  0.96274530     1.01500
C222        C  0.84980175  0.82619642  0.96426190     1.14400
C223        C  0.87100190  0.75442263  0.88022217     1.05200
O224        O  0.92922879  0.72678620  0.89929277    -0.94400
O225        O  0.96102296  0.76118952  0.88886573    -0.90200
O226        O  0.97544829  0.79442296  0.89610653    -0.83300
C227        C  0.97393185  0.77666884  0.88427479     1.11800
O228        O  0.87247568  0.84283503  0.88495325    -0.96400
Zr229      Zr  0.90760498  0.83067880  0.90037393     1.88900
O230        O  0.96992641  0.83781816  0.90874218    -0.73100
O231        O  0.92816034  0.76771029  0.85808858    -0.52300
O232        O  0.90720708  0.82829354  0.86014072    -0.97000
O233        O  0.89912587  0.86914521  0.91001255    -0.54200
O234        O  0.94012033  0.84865028  0.88866630    -0.73600
C235        C  0.96047890  0.84950255  0.89385162     0.98800
O236        O  0.99215433  0.79286329  0.94447610    -0.62400
O237        O  0.90446856  0.81518891  0.00411474    -0.57200
O238        O  0.96830381  0.83601385  0.95669725    -0.93900
O239        O  0.93883853  0.84308674  0.97955152    -0.92300
O240        O  0.92053172  0.76606503  0.00278869    -0.92700
O241        O  0.95192368  0.74522787  0.97939534    -0.91400
C242        C  0.95861190  0.84636480  0.97301510     1.17600
H243        H  0.88066643  0.78810457  0.97602064     0.33600
H244        H  0.95518982  0.75939316  0.93139515     0.44400
H245        H  0.93336207  0.84857951  0.93520726     0.37900
H246        H  0.88589063  0.79401610  0.88377386     0.34400
H247        H  0.91008401  0.71802277  0.94629576     0.26200
H248        H  0.92661720  0.75238054  0.85247848     0.32100
H249        H  0.92124315  0.82054593  0.85598549     0.38100
H250        H  0.91315089  0.75300266  0.00856852     0.32500
H251        H  0.91103930  0.82779946  0.01214012     0.31400
H252        H  0.89664511  0.86344484  0.99088454     0.33100
H253        H  0.91355078  0.87640122  0.91089896     0.32000
H254        H  0.96417023  0.75425850  0.97407859     0.36000
H255        H  0.99011111  0.79271947  0.96072478     0.28800
H256        H  0.82721682  0.77976676  0.91355600     0.33000
H257        H  0.86181452  0.83178437  0.88973465     0.35900
H258        H  0.88852965  0.81645070  0.00775112     0.28500
H259        H  0.99262287  0.77711200  0.93984784     0.41300
H260        H  0.92795403  0.72149744  0.88375509     0.31400
H261        H  0.93572413  0.72035322  0.94475861     0.39000
H262        H  0.89384316  0.86893287  0.92551837     0.30900
H263        H  0.91510920  0.77585375  0.85242516     0.30900
H264        H  0.83338056  0.80399676  0.90840484     0.31200
Zr265      Zr  0.29603108  0.48078758  0.93879736     2.17500
O266        O  0.27723259  0.51445080  0.95215508    -0.51200
O267        O  0.32330253  0.49814641  0.91634770    -0.74400
O268        O  0.32864326  0.49732409  0.95889002    -0.81200
O269        O  0.26561864  0.46390805  0.88556180    -0.82900
O270        O  0.34356824  0.47001324  0.97941919    -0.78500
O271        O  0.27875397  0.49403436  0.90364771    -0.90200
O272        O  0.34976408  0.47125285  0.91120531    -0.76100
O273        O  0.32599912  0.45829852  0.94921766    -0.85600
O274        O  0.30408734  0.45497595  0.90942976    -0.85300
O275        O  0.28515898  0.46222721  0.97253895    -0.72100
O276        O  0.26410072  0.45721210  0.93699035    -0.84200
Zr277      Zr  0.29788515  0.39295264  0.94757846     2.26400
Zr278      Zr  0.31732385  0.44117254  0.98271926     2.06300
Zr279      Zr  0.27287684  0.43232790  0.90683616     2.10000
Zr280      Zr  0.33627211  0.43496602  0.91954239     1.78800
O281        O  0.23324624  0.43497333  0.90076714    -0.93000
O282        O  0.37234872  0.43372685  0.93700100    -0.40800
O283        O  0.30568262  0.41152588  0.91411427    -0.77400
O284        O  0.32870832  0.41629696  0.95290105    -0.96100
O285        O  0.28837646  0.41581593  0.97895083    -0.89400
O286        O  0.26477730  0.41258697  0.93877469    -0.92300
C287        C  0.34238579  0.49120951  0.90977269     1.01500
C288        C  0.26977813  0.48435893  0.88666296     1.14400
C289        C  0.34449343  0.48898781  0.97079279     1.05200
O290        O  0.34221724  0.44641271  0.01387140    -0.94400
O291        O  0.33376514  0.40760454  0.99607695    -0.90200
O292        O  0.31953030  0.37819148  0.97752065    -0.83300
C293        C  0.33228436  0.38696064  0.99193088     1.11800
O294        O  0.23452203  0.46419714  0.98949069    -0.96400
Zr295      Zr  0.25571818  0.43545389  0.96935839     1.88900
O296        O  0.27161884  0.37303630  0.96748286    -0.73100
O297        O  0.29559399  0.45315399  0.01508519    -0.52300
O298        O  0.25236792  0.43045998  0.00908699    -0.97000
O299        O  0.21817781  0.43924478  0.95544303    -0.54200
O300        O  0.24210783  0.39647155  0.97234341    -0.73600
C301        C  0.25115301  0.37678635  0.97114158     0.98800
O302        O  0.32065528  0.36204518  0.93349565    -0.62400
O303        O  0.28216018  0.42278582  0.86847847    -0.57200
O304        O  0.27706953  0.37103852  0.92111523    -0.93900
O305        O  0.26233895  0.39575580  0.89735588    -0.92300
O306        O  0.34767954  0.43739537  0.88113334    -0.92700
O307        O  0.35149848  0.39984961  0.90559598    -0.91400
C308        C  0.26497209  0.37627593  0.90460934     1.17600
H309        H  0.30700205  0.46203120  0.89562279     0.33600
H310        H  0.34195341  0.40790032  0.95620928     0.44400
H311        H  0.25238865  0.40342303  0.93570213     0.37900
H312        H  0.28125557  0.47337268  0.98361698     0.34400
H313        H  0.38068102  0.42179738  0.92902897     0.26200
H314        H  0.29716178  0.44090335  0.02550880     0.32100
H315        H  0.25716695  0.41501039  0.01148475     0.38100
H316        H  0.33366855  0.43830116  0.87285867     0.32500
H317        H  0.26936679  0.42799015  0.85975825     0.31400
H318        H  0.23123038  0.42921758  0.88547768     0.33100
H319        H  0.21467425  0.42449351  0.94930760     0.32000
H320        H  0.34056120  0.39419701  0.89491148     0.36000
H321        H  0.31861077  0.36187212  0.91726659     0.28800
H322        H  0.28845093  0.52594163  0.95086495     0.33000
H323        H  0.22105223  0.45709376  0.99491049     0.35900
H324        H  0.29422069  0.43270922  0.86457966     0.28500
H325        H  0.33600117  0.36689700  0.93553445     0.41300
H326        H  0.35697490  0.44124152  0.00851355     0.31400
H327        H  0.37947018  0.44735973  0.93238677     0.39000
H328        H  0.21940791  0.44861390  0.94235793     0.30900
H329        H  0.30382803  0.46538188  0.02198832     0.30900
H330        H  0.27547404  0.51254188  0.96826670     0.31200
Zr331      Zr  0.41259697  0.43705789  0.78091179     2.17500
O332        O  0.42638978  0.44695122  0.74471313    -0.51200
O333        O  0.38409986  0.41212948  0.76917628    -0.74400
O334        O  0.42831364  0.40105906  0.76672798    -0.81200
O335        O  0.36876915  0.48391312  0.79228126    -0.82900
O336        O  0.45356459  0.38882384  0.79154991    -0.78500
O337        O  0.37939904  0.45737312  0.76688585    -0.90200
O338        O  0.37224577  0.39747110  0.80125002    -0.76100
O339        O  0.41991044  0.40913458  0.80688992    -0.85600
O340        O  0.38489947  0.44147257  0.80884145    -0.85300
O341        O  0.44928591  0.44362044  0.79554847    -0.72100
O342        O  0.41733441  0.47334677  0.79760879    -0.84200
Zr343      Zr  0.42937455  0.45288478  0.86560146     2.26400
Zr344      Zr  0.45564944  0.41535328  0.82200022     2.06300
Zr345      Zr  0.38907125  0.47706706  0.82547147     2.10000
Zr346      Zr  0.39110212  0.41221325  0.83317372     1.78800
O347        O  0.38922274  0.51661136  0.81986665    -0.93000
O348        O  0.39947922  0.37276232  0.83349549    -0.40800
O349        O  0.39325101  0.44781275  0.85100496    -0.77400
O350        O  0.42653795  0.41692556  0.84904463    -0.96100
O351        O  0.45919480  0.45031645  0.83981353    -0.89400
O352        O  0.42428739  0.48247912  0.84113847    -0.92300
C353        C  0.37164595  0.39964802  0.78024860     1.01500
C354        C  0.36642599  0.47339698  0.77389990     1.14400
C355        C  0.44245980  0.38648715  0.77369301     1.05200
O356        O  0.47571020  0.38050090  0.82643225    -0.94400
O357        O  0.46804554  0.40519531  0.85882017    -0.90200
O358        O  0.45649201  0.43091245  0.88448879    -0.83300
C359        C  0.46652264  0.41290921  0.87879707     1.11800
O360        O  0.46562666  0.49226536  0.77890883    -0.96400
Zr361      Zr  0.45299307  0.47904240  0.81446326     1.88900
O362        O  0.45567581  0.47891622  0.87734760    -0.73100
O363        O  0.49239968  0.42557235  0.81024261    -0.52300
O364        O  0.49261455  0.47362397  0.80877595    -0.97000
O365        O  0.44461618  0.51819134  0.81019767    -0.54200
O366        O  0.46925162  0.49681951  0.84781948    -0.73600
C367        C  0.46783485  0.49331033  0.86875941     0.98800
O368        O  0.41690149  0.43987644  0.90121795    -0.62400
O369        O  0.34942418  0.47654383  0.83244568    -0.57200
O370        O  0.40703916  0.48020493  0.88570788    -0.93900
O371        O  0.38165701  0.49369421  0.86170990    -0.92300
O372        O  0.35149194  0.41351076  0.84009296    -0.92700
O373        O  0.38295496  0.39829748  0.86950063    -0.91400
C374        C  0.39014503  0.49224813  0.88103070     1.17600
H375        H  0.37015320  0.44034668  0.80308961     0.33600
H376        H  0.42814477  0.40563534  0.85990778     0.44400
H377        H  0.42466974  0.49658489  0.84886401     0.37900
H378        H  0.46002111  0.44212352  0.78368367     0.34400
H379        H  0.38488824  0.36577640  0.83299519     0.26200
H380        H  0.50160171  0.42378192  0.82358598     0.32100
H381        H  0.49862529  0.47087593  0.82366510     0.38100
H382        H  0.34679092  0.39808376  0.83816805     0.32500
H383        H  0.34782831  0.47117835  0.84767859     0.31400
H384        H  0.37507295  0.52222748  0.82633829     0.33100
H385        H  0.43957413  0.52370863  0.82495047     0.32000
H386        H  0.38539822  0.41096501  0.87968838     0.36000
H387        H  0.40067783  0.44179906  0.90052155     0.28800
H388        H  0.43199252  0.46201250  0.74695689     0.33000
H389        H  0.47548323  0.50462219  0.78242954     0.35900
H390        H  0.34465764  0.49224620  0.83345921     0.28500
H391        H  0.41927355  0.42369124  0.90057586     0.41300
H392        H  0.46453855  0.37019513  0.83175027     0.31400
H393        H  0.40619260  0.36917208  0.81884686     0.39000
H394        H  0.43119513  0.51867769  0.80095363     0.30900
H395        H  0.49739825  0.41341575  0.80007697     0.30900
H396        H  0.41300275  0.44892200  0.73560274     0.31200
Zr397      Zr  0.28727745  0.26644220  0.80749647     2.17500
O398        O  0.27557075  0.23276893  0.78881557    -0.51200
O399        O  0.31419726  0.25116391  0.83351901    -0.74400
O400        O  0.32038800  0.25149583  0.78811925    -0.81200
O401        O  0.23306926  0.26800223  0.83765372    -0.82900
O402        O  0.33693586  0.28044473  0.77213063    -0.78500
O403        O  0.26492122  0.24812321  0.83597083    -0.90200
O404        O  0.32243554  0.27899926  0.85772807    -0.76100
O405        O  0.31597928  0.29225259  0.81175217    -0.85600
O406        O  0.27859054  0.28818665  0.83982745    -0.85300
O407        O  0.28625054  0.28896438  0.77467511    -0.72100
O408        O  0.25250813  0.28500576  0.79887095    -0.84200
Zr409      Zr  0.27360115  0.35344766  0.80812733     2.26400
Zr410      Zr  0.31557585  0.31426538  0.77964462     2.06300
Zr411      Zr  0.24366680  0.30542120  0.83216221     2.10000
Zr412      Zr  0.30772116  0.31307024  0.84453237     1.78800
O413        O  0.20460316  0.30596019  0.82299195    -0.93000
O414        O  0.34750168  0.31656751  0.84604827    -0.40800
O415        O  0.27302918  0.33023485  0.83889525    -0.77400
O416        O  0.30884368  0.33555650  0.81299826    -0.96100
O417        O  0.28193811  0.33456127  0.77403303    -0.89400
O418        O  0.24346630  0.32963117  0.80169506    -0.92300
C419        C  0.32404284  0.25904804  0.85065430     1.01500
C420        C  0.24582602  0.25277459  0.84474294     1.14400
C421        C  0.33606287  0.25995826  0.77686948     1.05200
O422        O  0.35492705  0.32118487  0.78183172    -0.94400
O423        O  0.32611631  0.35167000  0.77221316    -0.90200
O424        O  0.30280346  0.37461593  0.79204491    -0.83300
C425        C  0.31974362  0.37079477  0.77960068     1.11800
O426        O  0.23920006  0.28089724  0.74394899    -0.96400
Zr427      Zr  0.25256185  0.31030702  0.76820133     1.88900
O428        O  0.24522366  0.37003430  0.78684083    -0.73100
O429        O  0.31601610  0.31197879  0.73938660    -0.52300
O430        O  0.26668184  0.31022260  0.73036806    -0.97000
O431        O  0.21244321  0.30820340  0.76727833    -0.54200
O432        O  0.24298578  0.34852617  0.75601152    -0.73600
C433        C  0.24032210  0.36721757  0.76658008     0.98800
O434        O  0.27720964  0.39231202  0.81818277    -0.62400
O435        O  0.23622901  0.30252072  0.87164191    -0.57200
O436        O  0.25672811  0.36179448  0.84411847    -0.93900
O437        O  0.22963168  0.33781373  0.85125105    -0.92300
O438        O  0.29605272  0.31393165  0.88316027    -0.92700
O439        O  0.31745226  0.34735436  0.86337292    -0.91400
C440        C  0.24068498  0.35484556  0.85585794     1.17600
H441        H  0.27802784  0.28000501  0.85328274     0.33600
H442        H  0.32032505  0.34603325  0.81548617     0.44400
H443        H  0.22933013  0.33725584  0.80116396     0.37900
H444        H  0.28939044  0.27963708  0.76181947     0.34400
H445        H  0.35347444  0.30371137  0.83738071     0.26200
H446        H  0.31671226  0.32744713  0.73468978     0.32100
H447        H  0.26030807  0.32370444  0.72380386     0.38100
H448        H  0.29210582  0.29862014  0.88638929     0.32500
H449        H  0.22179404  0.29534187  0.87267477     0.31400
H450        H  0.19689903  0.30778661  0.83742228     0.33100
H451        H  0.20676861  0.32287951  0.77240179     0.32000
H452        H  0.30605403  0.35822799  0.85874312     0.36000
H453        H  0.26202804  0.39792262  0.82142100     0.28800
H454        H  0.28456844  0.22091216  0.79557054     0.33000
H455        H  0.23029047  0.28826334  0.73247463     0.35900
H456        H  0.24711034  0.29156488  0.87710954     0.28500
H457        H  0.28473828  0.39243892  0.83266645     0.41300
H458        H  0.35983857  0.31386623  0.79545769     0.31400
H459        H  0.35070749  0.32936271  0.83682892     0.39000
H460        H  0.20871818  0.29819522  0.77934118     0.30900
H461        H  0.33070605  0.30548275  0.73546766     0.30900
H462        H  0.28144817  0.23368137  0.77356730     0.31200
Zr463      Zr  0.40657319  0.26474315  0.92320588     2.17500
O464        O  0.41910558  0.22965287  0.93785145    -0.51200
O465        O  0.38312905  0.25197691  0.89309749    -0.74400
O466        O  0.37057854  0.25186807  0.93836040    -0.81200
O467        O  0.44956438  0.27537759  0.87807585    -0.82900
O468        O  0.35811033  0.27637535  0.96484502    -0.78500
O469        O  0.42667598  0.24884801  0.89012738    -0.90200
O470        O  0.36948017  0.28324251  0.87755770    -0.76100
O471        O  0.37708331  0.29084070  0.92719514    -0.85600
O472        O  0.41111558  0.29127252  0.89539978    -0.85300
O473        O  0.41150998  0.28192077  0.95968930    -0.72100
O474        O  0.44173476  0.28210728  0.93112203    -0.84200
Zr475      Zr  0.41811304  0.35061729  0.93814408     2.26400
Zr476      Zr  0.38127981  0.30777156  0.96275297     2.06300
Zr477      Zr  0.44597361  0.30740587  0.90183949     2.10000
Zr478      Zr  0.38081590  0.31594418  0.89819646     1.78800
O479        O  0.48368681  0.29310220  0.90464265    -0.93000
O480        O  0.34087392  0.31630042  0.90271771    -0.40800
O481        O  0.41559890  0.33336066  0.90265684    -0.77400
O482        O  0.38321485  0.33372790  0.93365485    -0.96100
O483        O  0.41467714  0.32661436  0.96826771    -0.89400
O484        O  0.44912578  0.32598606  0.93660994    -0.92300
C485        C  0.37182409  0.26220004  0.87847748     1.01500
C486        C  0.44019562  0.25681769  0.87585966     1.14400
C487        C  0.35619256  0.25872274  0.95314621     1.05200
O488        O  0.34352032  0.32245587  0.96318904    -0.94400
O489        O  0.37802433  0.34063736  0.98520243    -0.90200
O490        O  0.39458885  0.36799016  0.96665017    -0.83300
C491        C  0.38222966  0.36086721  0.98215569     1.11800
O492        O  0.46186276  0.26851173  0.98072027    -0.96400
Zr493      Zr  0.44521217  0.30219127  0.96642853     1.88900
O494        O  0.44119094  0.36607472  0.96501121    -0.73100
O495        O  0.38044331  0.29564561  0.00087908    -0.52300
O496        O  0.43620911  0.29768595  0.00533480    -0.97000
O497        O  0.48532791  0.30031083  0.96286470    -0.54200
O498        O  0.45652670  0.33836785  0.98464085    -0.73600
C499        C  0.45291009  0.35919872  0.98088382     0.98800
O500        O  0.40336165  0.38459892  0.92320260    -0.62400
O501        O  0.44939762  0.32046285  0.86423785    -0.57200
O502        O  0.44763333  0.36759489  0.91726000    -0.93900
O503        O  0.46568805  0.34085787  0.89669435    -0.92300
O504        O  0.38999994  0.32521280  0.86034789    -0.92700
O505        O  0.36314026  0.35027251  0.88721827    -0.91400
C506        C  0.46278114  0.36084143  0.90345874     1.17600
H507        H  0.41035720  0.28537183  0.88051672     0.33600
H508        H  0.37146042  0.34470294  0.93531079     0.44400
H509        H  0.46294792  0.33347157  0.93808031     0.37900
H510        H  0.41009898  0.27086368  0.97075853     0.34400
H511        H  0.33692850  0.30058449  0.90292334     0.26200
H512        H  0.36469745  0.29686529  0.00531195     0.32100
H513        H  0.42645371  0.31049712  0.00932344     0.38100
H514        H  0.39477854  0.31111232  0.85305971     0.32500
H515        H  0.46177852  0.31167714  0.85750747     0.31400
H516        H  0.49215020  0.30151180  0.89379568     0.33100
H517        H  0.49035909  0.31504194  0.96766866     0.32000
H518        H  0.37472375  0.36128653  0.88943324     0.36000
H519        H  0.40693712  0.38348123  0.90722142     0.28800
H520        H  0.40703976  0.21944352  0.93440347     0.33000
H521        H  0.47153835  0.27329477  0.99297787     0.35900
H522        H  0.43609958  0.31516131  0.85655666     0.28500
H523        H  0.38720677  0.38273803  0.92390693     0.41300
H524        H  0.33662721  0.31620238  0.97643522     0.31400
H525        H  0.33829962  0.32167140  0.91810746     0.39000
H526        H  0.48826426  0.29957332  0.94677253     0.30900
H527        H  0.38378828  0.27961277  0.00015480     0.30900
H528        H  0.41835099  0.23187442  0.95410812     0.31200
Zr529      Zr  0.53614069  0.22728749  0.54898197     2.17500
O530        O  0.52260996  0.26213668  0.53453364    -0.51200
O531        O  0.56321911  0.24120005  0.57474394    -0.74400
O532        O  0.51697923  0.24571552  0.58102484    -0.81200
O533        O  0.58096407  0.21199759  0.50576457    -0.82900
O534        O  0.49229459  0.22083442  0.59270657    -0.78500
O535        O  0.56711131  0.24075221  0.52693546    -0.90200
O536        O  0.57330127  0.21152687  0.59495543    -0.76100
O537        O  0.52647649  0.20413951  0.57842146    -0.85600
O538        O  0.56491978  0.19973038  0.55081881    -0.85300
O539        O  0.50058222  0.21222629  0.53985872    -0.72100
O540        O  0.53631058  0.20668008  0.51434109    -0.84200
Zr541      Zr  0.52099970  0.14174743  0.53925220     2.26400
Zr542      Zr  0.49181226  0.18830019  0.56943730     2.06300
Zr543      Zr  0.56461223  0.17848078  0.51718501     2.10000
Zr544      Zr  0.55573208  0.17821881  0.58146363     1.78800
O545        O  0.57340010  0.17759553  0.47784029    -0.93000
O546        O  0.54271103  0.18212334  0.61958437    -0.40800
O547        O  0.55644756  0.15627503  0.54790337    -0.77400
O548        O  0.52119222  0.16166095  0.57381863    -0.96100
O549        O  0.49151004  0.16795244  0.53556364    -0.89400
O550        O  0.52989789  0.16356327  0.50854510    -0.92300
C551        C  0.57423838  0.23197105  0.59011834     1.01500
C552        C  0.58063258  0.23218981  0.51236586     1.14400
C553        C  0.50237708  0.23902377  0.59481873     1.05200
O554        O  0.46764861  0.18867853  0.60181050    -0.94400
O555        O  0.47973478  0.15320730  0.58353418    -0.90200
O556        O  0.49248994  0.12531963  0.56091286    -0.83300
C557        C  0.48195977  0.13268505  0.57802255     1.11800
O558        O  0.48950492  0.22595448  0.49054956    -0.96400
Zr559      Zr  0.50140465  0.19081116  0.50571865     1.88900
O560        O  0.49645177  0.12974275  0.51055605    -0.73100
O561        O  0.45664884  0.19871606  0.55296437    -0.52300
O562        O  0.46141909  0.19523915  0.50324255    -0.97000
O563        O  0.51509304  0.19419258  0.46799941    -0.54200
O564        O  0.48933543  0.15730974  0.48661349    -0.73600
C565        C  0.48833650  0.13723227  0.49263094     0.98800
O566        O  0.53226083  0.10688880  0.55549295    -0.62400
O567        O  0.60312206  0.17259190  0.52753046    -0.57200
O568        O  0.54430041  0.11914351  0.51520489    -0.93900
O569        O  0.57238973  0.14061473  0.50417396    -0.92300
O570        O  0.59447328  0.16742810  0.58447067    -0.92700
O571        O  0.56374180  0.14458386  0.60108188    -0.91400
C572        C  0.56214890  0.12234012  0.50453972     1.17600
H573        H  0.57927547  0.20606139  0.55258439     0.33600
H574        H  0.51888545  0.15196530  0.58596500     0.44400
H575        H  0.53105552  0.15490592  0.49497824     0.37900
H576        H  0.48964476  0.22404399  0.53906687     0.34400
H577        H  0.54304906  0.19810544  0.62315510     0.26200
H578        H  0.44772630  0.18531964  0.55379643     0.32100
H579        H  0.45560982  0.18038759  0.50564136     0.38100
H580        H  0.60216097  0.17661049  0.57370761     0.32500
H581        H  0.60710914  0.15745846  0.52224973     0.31400
H582        H  0.58903995  0.17252448  0.47695368     0.33100
H583        H  0.52115652  0.17939916  0.46376124     0.32000
H584        H  0.56423728  0.13300024  0.58928267     0.36000
H585        H  0.54858509  0.10643009  0.55459450     0.28800
H586        H  0.53262867  0.27324030  0.54087216     0.33000
H587        H  0.48259167  0.22230559  0.47617059     0.35900
H588        H  0.61159930  0.18220746  0.51779022     0.28500
H589        H  0.52920443  0.10902796  0.57149327     0.41300
H590        H  0.47757793  0.18598701  0.61447273     0.31400
H591        H  0.52679896  0.17885987  0.61890154     0.39000
H592        H  0.52823127  0.20348631  0.46941043     0.30900
H593        H  0.44967391  0.20921379  0.56382631     0.30900
H594        H  0.50833414  0.26512708  0.54220244     0.31200
Zr595      Zr  0.64858422  0.23176325  0.67428633     2.17500
O596        O  0.66275616  0.26779800  0.68428267    -0.51200
O597        O  0.61806789  0.24373141  0.65117692    -0.74400
O598        O  0.66248186  0.24259316  0.63720808    -0.81200
O599        O  0.60503087  0.22024671  0.71850118    -0.82900
O600        O  0.69681892  0.22805802  0.63554996    -0.78500
O601        O  0.61729290  0.24743172  0.69648582    -0.90200
O602        O  0.60894522  0.21298511  0.63130850    -0.76100
O603        O  0.65583238  0.20674613  0.64435001    -0.85600
O604        O  0.62117405  0.20441813  0.67620297    -0.85300
O605        O  0.68536631  0.21644276  0.68118473    -0.72100
O606        O  0.65406661  0.21363120  0.70936965    -0.84200
Zr607      Zr  0.66787729  0.14714078  0.68322924     2.26400
Zr608      Zr  0.69217563  0.19192768  0.64998640     2.06300
Zr609      Zr  0.62605540  0.18655092  0.71045342     2.10000
Zr610      Zr  0.62764480  0.18062672  0.64518286     1.78800
O611        O  0.62461883  0.19360329  0.75021359    -0.93000
O612        O  0.63519256  0.17938373  0.60558105    -0.40800
O613        O  0.63132372  0.16197655  0.67922270    -0.77400
O614        O  0.66386617  0.16491083  0.64875227    -0.96100
O615        O  0.69667368  0.17291358  0.68355562    -0.89400
O616        O  0.66152553  0.17010709  0.71526533    -0.92300
C617        C  0.60695668  0.23358780  0.63626798     1.01500
C618        C  0.60399086  0.23984123  0.71108577     1.14400
C619        C  0.68108394  0.23912081  0.62697576     1.05200
O620        O  0.69652427  0.18783820  0.61002617    -0.94400
O621        O  0.71113284  0.15779163  0.63919768    -0.90200
O622        O  0.69425452  0.13070315  0.65770405    -0.83300
C623        C  0.70823291  0.13754778  0.64359914     1.11800
O624        O  0.70337229  0.23004762  0.73160662    -0.96400
Zr625      Zr  0.68993149  0.19595816  0.71506778     1.88900
O626        O  0.70200289  0.13958168  0.70097374    -0.73100
O627        O  0.73103171  0.20048174  0.65385654    -0.52300
O628        O  0.72979024  0.19695358  0.70987667    -0.97000
O629        O  0.68294870  0.20102114  0.75460778    -0.54200
O630        O  0.70137242  0.16007128  0.73187036    -0.73600
C631        C  0.70433769  0.14130029  0.72168835     0.98800
O632        O  0.65684191  0.11031385  0.67184882    -0.62400
O633        O  0.58755521  0.17588435  0.70885265    -0.57200
O634        O  0.64902431  0.12673893  0.71111965    -0.93900
O635        O  0.62217720  0.15003304  0.72533267    -0.92300
O636        O  0.58834554  0.17412014  0.64931469    -0.92700
O637        O  0.61712728  0.14504299  0.62972855    -0.91400
C638        C  0.63219836  0.13113671  0.72356604     1.17600
H639        H  0.60637877  0.21059972  0.67547226     0.33600
H640        H  0.66644367  0.15459260  0.63652957     0.44400
H641        H  0.66184082  0.16226313  0.72893735     0.37900
H642        H  0.69587815  0.22813728  0.68108323     0.34400
H643        H  0.64265056  0.19333501  0.60261789     0.26200
H644        H  0.73688232  0.18963076  0.66440926     0.32100
H645        H  0.73461046  0.18134870  0.70775484     0.38100
H646        H  0.58744625  0.16247197  0.66043369     0.32500
H647        H  0.58087254  0.18170003  0.72284722     0.31400
H648        H  0.61073996  0.18687707  0.75507416     0.33100
H649        H  0.69588543  0.19403509  0.76179858     0.32000
H650        H  0.62960309  0.13488674  0.63310833     0.36000
H651        H  0.65599446  0.11087289  0.65554919     0.28800
H652        H  0.65394138  0.27280989  0.69736599     0.33000
H653        H  0.71625338  0.22567557  0.74064581     0.35900
H654        H  0.58086243  0.18510035  0.69727456     0.28500
H655        H  0.66971355  0.10047027  0.67472751     0.41300
H656        H  0.68297322  0.19461164  0.60383513     0.31400
H657        H  0.64681941  0.16779907  0.60334838     0.39000
H658        H  0.67061208  0.19118653  0.75782898     0.30900
H659        H  0.73777053  0.19585376  0.63947814     0.30900
H660        H  0.65766132  0.27744906  0.67228351     0.31200
Zr661      Zr  0.65247165  0.06205141  0.51415112     2.17500
O662        O  0.66983430  0.04928113  0.47966628    -0.51200
O663        O  0.62324227  0.08410296  0.49915323    -0.74400
O664        O  0.62189195  0.04130545  0.49704191    -0.81200
O665        O  0.68602092  0.11322972  0.52757471    -0.82900
O666        O  0.60517334  0.02453846  0.52569113    -0.78500
O667        O  0.66875803  0.09589052  0.49895472    -0.90200
O668        O  0.59843844  0.09131162  0.52690904    -0.76100
O669        O  0.62285369  0.05485538  0.53848029    -0.85600
O670        O  0.64907997  0.09203213  0.54006808    -0.85300
O671        O  0.66073384  0.02694998  0.53111449    -0.72100
O672        O  0.68700018  0.06124996  0.53367662    -0.84200
Zr673      Zr  0.66046491  0.05248998  0.60013417     2.26400
Zr674      Zr  0.63050600  0.02094601  0.55602032     2.06300
Zr675      Zr  0.68319106  0.09149163  0.55969298     2.10000
Zr676      Zr  0.61792899  0.08543580  0.56231204     1.78800
O677        O  0.72137551  0.09722856  0.54899193    -0.93000
O678        O  0.58013950  0.07401003  0.56826312    -0.40800
O679        O  0.65182394  0.08676576  0.58312676    -0.77400
O680        O  0.62580976  0.05169606  0.58130904    -0.96100
O681        O  0.66391682  0.02100936  0.57611647    -0.89400
O682        O  0.69146646  0.05769857  0.57685289    -0.92300
C683        C  0.60417453  0.09030128  0.50630043     1.01500
C684        C  0.67906410  0.11236342  0.50769574     1.14400
C685        C  0.60545823  0.03143449  0.50582737     1.05200
O686        O  0.59552046  0.00294811  0.56166810    -0.94400
O687        O  0.62557641  0.00369565  0.59193525    -0.90200
O688        O  0.63912464  0.02587667  0.61920950    -0.83300
C689        C  0.62927686  0.00863180  0.61236183     1.11800
O690        O  0.70941569  0.01132701  0.51773812    -0.96400
Zr691      Zr  0.69437228  0.02700359  0.55229946     1.88900
O692        O  0.68799875  0.02784909  0.61427793    -0.73100
O693        O  0.64192672  0.98543112  0.53962108    -0.52300
O694        O  0.69326193  0.98692776  0.55267417    -0.97000
O695        O  0.73310402  0.03542958  0.54680091    -0.54200
O696        O  0.71255343  0.01706132  0.58740135    -0.73600
C697        C  0.70597867  0.01824343  0.60772987     0.98800
O698        O  0.64436727  0.06633879  0.63479266    -0.62400
O699        O  0.67665658  0.12899548  0.57378503    -0.57200
O700        O  0.68699716  0.07520781  0.61925407    -0.93900
O701        O  0.70204174  0.09788722  0.59423342    -0.92300
O702        O  0.61559532  0.12536656  0.55968360    -0.92700
O703        O  0.60226605  0.10276531  0.59567264    -0.91400
C704        C  0.70040137  0.09014768  0.61369800     1.17600
H705        H  0.64605453  0.10592665  0.53315050     0.33600
H706        H  0.61406134  0.04901900  0.59170249     0.44400
H707        H  0.70523802  0.05832177  0.58473352     0.37900
H708        H  0.66165625  0.01554414  0.51968473     0.34400
H709        H  0.57823141  0.06148608  0.55772565     0.26200
H710        H  0.63642495  0.97448008  0.55004394     0.32100
H711        H  0.70798951  0.98216027  0.55802900     0.38100
H712        H  0.60085024  0.12843915  0.55333223     0.32500
H713        H  0.68984858  0.13709169  0.56922760     0.31400
H714        H  0.72504527  0.11159086  0.55595281     0.33100
H715        H  0.73724801  0.04401271  0.56019586     0.32000
H716        H  0.61090866  0.09628363  0.60783669     0.36000
H717        H  0.65613870  0.06482621  0.64597789     0.28800
H718        H  0.65856944  0.05223563  0.46825397     0.33000
H719        H  0.72110987  0.00062345  0.52203960     0.35900
H720        H  0.66458039  0.13495114  0.56455236     0.28500
H721        H  0.64250729  0.08237769  0.63271156     0.41300
H722        H  0.58619216  0.01411905  0.56973673     0.31400
H723        H  0.58014190  0.06723326  0.58295241     0.39000
H724        H  0.73306552  0.04628034  0.53484971     0.30900
H725        H  0.63248788  0.98372874  0.52641334     0.30900
H726        H  0.67050453  0.03303618  0.48065673     0.31200
Zr727      Zr  0.49503212  0.06663523  0.66718482     2.17500
O728        O  0.46127482  0.04969834  0.67963046    -0.51200
O729        O  0.48080548  0.09225496  0.64055950    -0.74400
O730        O  0.47449733  0.09899792  0.68419162    -0.81200
O731        O  0.51310027  0.02381125  0.62151915    -0.82900
O732        O  0.49994145  0.11732802  0.70458281    -0.78500
O733        O  0.48416419  0.04592980  0.63304285    -0.90200
O734        O  0.51078439  0.11153329  0.63009663    -0.76100
O735        O  0.51743040  0.09756018  0.67399086    -0.85600
O736        O  0.52368463  0.06585052  0.63999912    -0.85300
O737        O  0.50960982  0.06252493  0.70423302    -0.72100
O738        O  0.51617586  0.03293021  0.67290985    -0.84200
Zr739      Zr  0.58105324  0.06053154  0.68547627     2.26400
Zr740      Zr  0.53221877  0.09394509  0.70996707     2.06300
Zr741      Zr  0.54420154  0.03230711  0.64464627     2.10000
Zr742      Zr  0.54483923  0.09752477  0.64634704     1.78800
O743        O  0.53780626  0.99290913  0.64364788    -0.93000
O744        O  0.54438938  0.13658990  0.65660296    -0.40800
O745        O  0.56661083  0.06407236  0.64901327    -0.77400
O746        O  0.56055054  0.09450286  0.68214305    -0.96100
O747        O  0.55430537  0.06152243  0.71442132    -0.89400
O748        O  0.55938731  0.02876874  0.68064618    -0.92300
C749        C  0.49008640  0.10738850  0.62975527     1.01500
C750        C  0.49349766  0.03180583  0.61933123     1.14400
C751        C  0.48086211  0.11596704  0.69566059     1.05200
O752        O  0.53619552  0.13183000  0.72311851    -0.94400
O753        O  0.56529358  0.10455128  0.72937349    -0.90200
O754        O  0.59440308  0.08550833  0.71369277    -0.83300
C755        C  0.58594234  0.09980530  0.72745952     1.11800
O756        O  0.50040093  0.01111058  0.72237451    -0.96400
Zr757      Zr  0.53282653  0.03001761  0.70928408     1.88900
O758        O  0.59509509  0.04061151  0.71575899    -0.73100
O759        O  0.51559401  0.08684771  0.74574164    -0.52300
O760        O  0.52444305  0.03873100  0.74797777    -0.97000
O761        O  0.53435623  0.99019217  0.70299660    -0.54200
O762        O  0.56773108  0.01950413  0.72887836    -0.73600
C763        C  0.58785028  0.02632089  0.72887493     0.98800
O764        O  0.61592188  0.07475889  0.67259325    -0.62400
O765        O  0.55625608  0.03422195  0.60623665    -0.57200
O766        O  0.60252621  0.03013490  0.66789188    -0.93900
O767        O  0.58062563  0.01482434  0.64147843    -0.92300
O768        O  0.55220783  0.09527235  0.60682031    -0.92700
O769        O  0.57882573  0.11570643  0.63702650    -0.91400
C770        C  0.59870520  0.01590824  0.65234803     1.17600
H771        H  0.51796883  0.06667821  0.62521537     0.33600
H772        H  0.56995715  0.10689624  0.68472437     0.44400
H773        H  0.56772525  0.01513875  0.68209586     0.37900
H774        H  0.49752577  0.06276138  0.71470812     0.34400
H775        H  0.53922584  0.14413649  0.64320853     0.26200
H776        H  0.52646909  0.09219076  0.75664976     0.32100
H777        H  0.53815917  0.04498488  0.75400338     0.38100
H778        H  0.54179347  0.08436879  0.60085100     0.32500
H779        H  0.57220907  0.03727913  0.60691485     0.31400
H780        H  0.54257659  0.98784948  0.62865121     0.33100
H781        H  0.55016566  0.98589240  0.70407883     0.32000
H782        H  0.58996165  0.10957743  0.64723511     0.36000
H783        H  0.61451547  0.09093268  0.67485755     0.28800
H784        H  0.46646240  0.03742174  0.68890467     0.33000
H785        H  0.50551867  0.00235409  0.73504278     0.35900
H786        H  0.55561081  0.01888230  0.60039975     0.28500
H787        H  0.62687176  0.07000172  0.68368959     0.41300
H788        H  0.54151786  0.13973596  0.71006825     0.31400
H789        H  0.53202209  0.13860944  0.66728196     0.39000
H790        H  0.53082328  0.98805244  0.68715273     0.30900
H791        H  0.50305831  0.09756606  0.74706094     0.30900
H792        H  0.45519506  0.04237573  0.66627929     0.31200
Zr793      Zr  0.44016500  0.27572399  0.75865308     2.17500
O794        O  0.41323533  0.30400915  0.77121549    -0.51200
O795        O  0.43940481  0.26966489  0.79871173    -0.74400
O796        O  0.40220824  0.26412797  0.75616104    -0.81200
O797        O  0.48398300  0.31927589  0.75424555    -0.82900
O798        O  0.40025833  0.22927859  0.74175518    -0.78500
O799        O  0.44705100  0.31554302  0.75922945    -0.90200
O800        O  0.46032101  0.24004802  0.80842749    -0.76100
O801        O  0.44489280  0.23706633  0.76388456    -0.85600
O802        O  0.47726645  0.27090912  0.77070225    -0.85300
O803        O  0.43255794  0.25826989  0.72314886    -0.72100
O804        O  0.46265202  0.28906675  0.72926829    -0.84200
Zr805      Zr  0.49760396  0.22780111  0.71161459     2.26400
Zr806      Zr  0.43800036  0.21917135  0.72867006     2.06300
Zr807      Zr  0.50001381  0.28372264  0.74119236     2.10000
Zr808      Zr  0.48222085  0.23220301  0.77546293     1.78800
O809        O  0.51543674  0.31409222  0.72113905    -0.93000
O810        O  0.47219569  0.19657515  0.78967143    -0.40800
O811        O  0.50554808  0.24508257  0.74659863    -0.77400
O812        O  0.47539324  0.21373548  0.74083909    -0.96100
O813        O  0.46066129  0.23250809  0.69945127    -0.89400
O814        O  0.49296904  0.26620280  0.70624746    -0.92300
C815        C  0.44653253  0.25579323  0.81294606     1.01500
C816        C  0.46450727  0.32721341  0.75871376     1.14400
C817        C  0.39144465  0.24708456  0.75032832     1.05200
O818        O  0.42470459  0.18807383  0.74912608    -0.94400
O819        O  0.45247161  0.18375498  0.71181867    -0.90200
O820        O  0.48688532  0.19136973  0.69935316    -0.83300
C821        C  0.47079921  0.17828283  0.70180456     1.11800
O822        O  0.42671292  0.29854270  0.68885780    -0.96400
Zr823      Zr  0.45609932  0.27110231  0.69422411     1.88900
O824        O  0.49898268  0.23139786  0.67189055    -0.73100
O825        O  0.41413292  0.21117210  0.69740986    -0.52300
O826        O  0.42879161  0.25698512  0.66844460    -0.97000
O827        O  0.46993567  0.30538768  0.67994088    -0.54200
O828        O  0.47698402  0.25983267  0.66087051    -0.73600
C829        C  0.49111525  0.24407091  0.65707964     0.98800
O830        O  0.52796174  0.20101078  0.71576156    -0.62400
O831        O  0.52304734  0.29068138  0.77337607    -0.57200
O832        O  0.53397791  0.24207401  0.70545086    -0.93900
O833        O  0.53711130  0.27372467  0.72609867    -0.92300
O834        O  0.50758283  0.24761673  0.80247779    -0.92700
O835        O  0.51501088  0.20882722  0.78013606    -0.91400
C836        C  0.54499673  0.25834207  0.71296662     1.17600
H837        H  0.47974895  0.27912181  0.78425973     0.33600
H838        H  0.47868720  0.19822186  0.74264162     0.44400
H839        H  0.50305294  0.27135228  0.69522447     0.37900
H840        H  0.41766547  0.26144028  0.71845122     0.34400
H841        H  0.47842901  0.19631835  0.80476088     0.26200
H842        H  0.40435040  0.19956037  0.70270034     0.32100
H843        H  0.43563856  0.24336463  0.66186490     0.38100
H844        H  0.50476211  0.23957826  0.81621309     0.32500
H845        H  0.53512226  0.29978614  0.76782455     0.31400
H846        H  0.52555583  0.32123789  0.73175032     0.33100
H847        H  0.48399665  0.30127443  0.67233290     0.32000
H848        H  0.51403824  0.19727972  0.76837118     0.36000
H849        H  0.53680687  0.20685928  0.72820287     0.28800
H850        H  0.40490241  0.29748507  0.78346696     0.33000
H851        H  0.42574262  0.30029336  0.67265600     0.35900
H852        H  0.51414459  0.30089401  0.78304098     0.28500
H853        H  0.52129359  0.18768909  0.72179302     0.41300
H854        H  0.42529840  0.19292951  0.76483755     0.31400
H855        H  0.45603378  0.19775282  0.79206568     0.39000
H856        H  0.47447113  0.31392296  0.69323664     0.30900
H857        H  0.40436253  0.22439014  0.69626141     0.30900
H858        H  0.40243274  0.30566737  0.75910537     0.31200
Zr859      Zr  0.27379473  0.83810355  0.33059162     2.17500
O860        O  0.27926882  0.87408349  0.34810938    -0.51200
O861        O  0.24709144  0.85319420  0.30678002    -0.74400
O862        O  0.29871176  0.85952661  0.30794475    -0.81200
O863        O  0.23206167  0.81711493  0.37307442    -0.82900
O864        O  0.30741641  0.83392398  0.28200137    -0.78500
O865        O  0.24570247  0.84808738  0.35798854    -0.90200
O866        O  0.24880837  0.83017784  0.27688558    -0.76100
O867        O  0.28398226  0.81888609  0.29734284    -0.85600
O868        O  0.24711454  0.81042402  0.32424424    -0.85300
O869        O  0.31090159  0.82493685  0.33616075    -0.72100
O870        O  0.27569037  0.81539805  0.36200574    -0.84200
Zr871      Zr  0.29884156  0.75272222  0.33022725     2.26400
Zr872      Zr  0.31982598  0.80356894  0.30329129     2.06300
Zr873      Zr  0.25036733  0.78630983  0.35464655     2.10000
Zr874      Zr  0.25809955  0.79203402  0.29091667     1.78800
O875        O  0.24303877  0.77858271  0.39326003    -0.93000
O876        O  0.27133402  0.78955769  0.25284422    -0.40800
O877        O  0.26199492  0.76700339  0.32156184    -0.77400
O878        O  0.29430306  0.77465824  0.29729003    -0.96100
O879        O  0.32353978  0.78198085  0.33520698    -0.89400
O880        O  0.28706826  0.77373156  0.36220041    -0.92300
C881        C  0.24514116  0.84951329  0.28615830     1.01500
C882        C  0.23334634  0.83800422  0.37157652     1.14400
C883        C  0.30880729  0.85332900  0.29005321     1.05200
O884        O  0.33726189  0.79861063  0.26707625    -0.94400
O885        O  0.34609058  0.77403325  0.29756028    -0.90200
O886        O  0.33329360  0.74198529  0.31059556    -0.83300
C887        C  0.34813816  0.75347726  0.30123660     1.11800
O888        O  0.32326576  0.83636193  0.38546407    -0.96400
Zr889      Zr  0.31245212  0.80216069  0.36754336     1.88900
O890        O  0.32655295  0.74136921  0.35790643    -0.73100
O891        O  0.35216052  0.82563571  0.31069549    -0.52300
O892        O  0.35184102  0.80859286  0.36669712    -0.97000
O893        O  0.29857950  0.80445554  0.40547006    -0.54200
O894        O  0.32948013  0.76982140  0.38285923    -0.73600
C895        C  0.33395821  0.75013764  0.37597008     0.98800
O896        O  0.29086343  0.71748309  0.31233779    -0.62400
O897        O  0.21172857  0.78175073  0.34515464    -0.57200
O898        O  0.27970599  0.73155538  0.35805714    -0.93900
O899        O  0.24568486  0.74695485  0.35729800    -0.92300
O900        O  0.21803207  0.78992268  0.29055890    -0.92700
O901        O  0.24281293  0.76175369  0.26935805    -0.91400
C902        C  0.26002235  0.73408136  0.36584139     1.17600
H903        H  0.23237674  0.81667192  0.32334794     0.33600
H904        H  0.29874940  0.76594624  0.28439212     0.44400
H905        H  0.28729432  0.76573232  0.37572666     0.37900
H906        H  0.32065689  0.83714473  0.33807083     0.34400
H907        H  0.25992192  0.79751879  0.24428250     0.26200
H908        H  0.35744174  0.82098310  0.32533587     0.32100
H909        H  0.35855296  0.79489175  0.36017671     0.38100
H910        H  0.21318219  0.80106274  0.27981863     0.32500
H911        H  0.21199458  0.77048033  0.33304848     0.31400
H912        H  0.22689896  0.77658492  0.39416522     0.33100
H913        H  0.30525164  0.79157983  0.41287666     0.32000
H914        H  0.25150710  0.74861485  0.27386166     0.36000
H915        H  0.27470793  0.71809674  0.30998221     0.28800
H916        H  0.27398810  0.88483918  0.33716399     0.33000
H917        H  0.31409944  0.84770995  0.37814164     0.35900
H918        H  0.20531651  0.77419684  0.35791833     0.28500
H919        H  0.29727261  0.71836667  0.29730408     0.41300
H920        H  0.32498565  0.79553162  0.25683512     0.31400
H921        H  0.28421802  0.79925568  0.25260803     0.39000
H922        H  0.28272664  0.80104882  0.40431045     0.30900
H923        H  0.36355591  0.81967233  0.30023835     0.30900
H924        H  0.29546757  0.87576881  0.34849639     0.31200
Zr925      Zr  0.42525378  0.76148124  0.43771770     2.17500
O926        O  0.44072613  0.72946607  0.45610177    -0.51200
O927        O  0.39861883  0.74423811  0.41241558    -0.74400
O928        O  0.39287572  0.74773711  0.45782841    -0.81200
O929        O  0.47288267  0.76401233  0.39771868    -0.82900
O930        O  0.37521652  0.77881842  0.47072623    -0.78500
O931        O  0.44558092  0.74142702  0.40789926    -0.90200
O932        O  0.38287877  0.77211597  0.39299299    -0.76100
O933        O  0.39517935  0.78702240  0.43826438    -0.85600
O934        O  0.42760189  0.78268295  0.40523516    -0.85300
O935        O  0.43063035  0.78405699  0.47110455    -0.72100
O936        O  0.45947374  0.78148343  0.44140912    -0.84200
Zr937      Zr  0.43309097  0.84935047  0.43833128     2.26400
Zr938      Zr  0.39970676  0.80894507  0.47079155     2.06300
Zr939      Zr  0.46163997  0.80126993  0.40790642     2.10000
Zr940      Zr  0.39654773  0.80714482  0.40546291     1.78800
O941        O  0.50173455  0.80103471  0.41056110    -0.93000
O942        O  0.35686699  0.80925854  0.41263333    -0.40800
O943        O  0.43042164  0.82601050  0.40633324    -0.77400
O944        O  0.39904193  0.83019038  0.43777521    -0.96100
O945        O  0.43161144  0.83070977  0.47244960    -0.89400
O946        O  0.46514494  0.82577522  0.43895676    -0.92300
C947        C  0.38525223  0.75178885  0.39775127     1.01500
C948        C  0.46212135  0.74620363  0.39559741     1.14400
C949        C  0.37596244  0.75814734  0.46638123     1.05200
O950        O  0.36203364  0.81566336  0.48381965    -0.94400
O951        O  0.38884242  0.84502797  0.48316079    -0.90200
O952        O  0.40555007  0.86948559  0.46108609    -0.83300
C953        C  0.39134081  0.86428826  0.47580874     1.11800
O954        O  0.48702098  0.77813412  0.48762093    -0.96400
Zr955      Zr  0.46302157  0.80706793  0.47294931     1.88900
O956        O  0.46195947  0.86552126  0.45918317    -0.73100
O957        O  0.40712295  0.80056764  0.50922709    -0.52300
O958        O  0.45706214  0.80121028  0.51223195    -0.97000
O959        O  0.50244672  0.81366639  0.46935939    -0.54200
O960        O  0.46424504  0.84546200  0.48962292    -0.73600
C961        C  0.46373094  0.86428385  0.48000027     0.98800
O962        O  0.42259240  0.88488513  0.42299189    -0.62400
O963        O  0.46300757  0.79778061  0.36767792    -0.57200
O964        O  0.45282712  0.86284463  0.40677866    -0.93900
O965        O  0.47051114  0.83410553  0.38879300    -0.92300
O966        O  0.40221687  0.80600200  0.36555760    -0.92700
O967        O  0.38122811  0.83959900  0.38760370    -0.91400
C968        C  0.46482344  0.85444718  0.39106309     1.17600
H969        H  0.42713740  0.77381946  0.39184152     0.33600
H970        H  0.38656810  0.84035933  0.43797846     0.44400
H971        H  0.47855510  0.83393916  0.43758279     0.37900
H972        H  0.43013436  0.77478014  0.48379595     0.34400
H973        H  0.35321259  0.79484602  0.41883111     0.26200
H974        H  0.40224141  0.81402869  0.51761810     0.32100
H975        H  0.45032154  0.81519926  0.51805669     0.38100
H976        H  0.41722094  0.81169062  0.36337987     0.32500
H977        H  0.47795132  0.79174549  0.36409676     0.31400
H978        H  0.50600099  0.81628215  0.40742209     0.33100
H979        H  0.50367148  0.82978254  0.46786251     0.32000
H980        H  0.37715871  0.85008347  0.39981188     0.36000
H981        H  0.40651046  0.88421998  0.42033537     0.28800
H982        H  0.43330695  0.71676885  0.44908190     0.33000
H983        H  0.49549986  0.78513173  0.49972841     0.35900
H984        H  0.45291939  0.78575288  0.36372042     0.28500
H985        H  0.42418779  0.89603057  0.43503340     0.41300
H986        H  0.35354251  0.81898373  0.47030318     0.31400
H987        H  0.35487835  0.81986290  0.42520384     0.39000
H988        H  0.50673362  0.80731991  0.45469045     0.30900
H989        H  0.39609691  0.78946257  0.51297585     0.30900
H990        H  0.43452028  0.73050333  0.47127758     0.31200
Zr991      Zr  0.28093064  0.97473863  0.43060123     2.17500
O992        O  0.26093746  0.00808819  0.44284039    -0.51200
O993        O  0.30746875  0.98893269  0.40371112    -0.74400
O994        O  0.31097188  0.99601469  0.44789658    -0.81200
O995        O  0.23317624  0.95664080  0.39455342    -0.82900
O996        O  0.33257422  0.96692249  0.44192532    -0.78500
O997        O  0.25597908  0.98540176  0.40065050    -0.90200
O998        O  0.32297280  0.95947866  0.38477471    -0.76100
O999        O  0.31339480  0.95246398  0.42854417    -0.85600
O1000       O  0.27714888  0.94651592  0.40277630    -0.85300
O1001       O  0.28404965  0.95929548  0.46740405    -0.72100
O1002       O  0.25099582  0.95235540  0.44384938    -0.84200
Zr1003     Zr  0.28708509  0.88850454  0.44648794     2.26400
Zr1004     Zr  0.31814682  0.93882551  0.46444757     2.06300
Zr1005     Zr  0.24697038  0.92534875  0.41489408     2.10000
Zr1006     Zr  0.31034794  0.92556085  0.40034230     1.78800
O1007       O  0.20754159  0.93013842  0.42209684    -0.93000
O1008       O  0.35045569  0.92501988  0.39828845    -0.40800
O1009       O  0.28035463  0.90355796  0.41101216    -0.77400
O1010       O  0.31713439  0.91049526  0.43598852    -0.96100
O1011       O  0.29040017  0.91458853  0.47599736    -0.89400
O1012       O  0.25254670  0.90802345  0.44951393    -0.92300
C1013       C  0.32096174  0.98020218  0.38923026     1.01500
C1014       C  0.24046068  0.97569204  0.38999902     1.14400
C1015       C  0.33032397  0.98698005  0.44808818     1.05200
O1016       O  0.35641435  0.94300430  0.47564578    -0.94400
O1017       O  0.33771924  0.90784675  0.47808479    -0.90200
O1018       O  0.31898608  0.87713400  0.46840435    -0.83300
C1019       C  0.33525042  0.88711128  0.47745138     1.11800
O1020       O  0.23732136  0.96418164  0.49878605    -0.96400
Zr1021     Zr  0.25612581  0.93373636  0.47885161     1.88900
O1022       O  0.27171401  0.87160999  0.47729977    -0.73100
O1023       O  0.31746623  0.95945761  0.49955055    -0.52300
O1024       O  0.27158319  0.94052511  0.51543676    -0.97000
O1025       O  0.21598252  0.93225658  0.48046745    -0.54200
O1026       O  0.25035734  0.89682516  0.49630341    -0.73600
C1027       C  0.25843990  0.87695689  0.49295806     0.98800
O1028       O  0.30368260  0.85490306  0.43034437    -0.62400
O1029       O  0.24141443  0.91287250  0.37676258    -0.57200
O1030       O  0.25884494  0.86564558  0.42997130    -0.93900
O1031       O  0.23422060  0.88820361  0.41261113    -0.92300
O1032       O  0.29619240  0.92160541  0.36284075    -0.92700
O1033       O  0.32331668  0.89082832  0.38346189    -0.91400
C1034       C  0.24147694  0.86921184  0.41836863     1.17600
H1035       H  0.27502569  0.95202963  0.38813160     0.33600
H1036       H  0.33077153  0.90192320  0.43536027     0.44400
H1037       H  0.24065475  0.89841325  0.45292336     0.37900
H1038       H  0.28482540  0.97125096  0.47815182     0.34400
H1039       H  0.35485502  0.93661280  0.40906035     0.26200
H1040       H  0.32562288  0.94991077  0.50990521     0.32100
H1041       H  0.28319692  0.92895980  0.51715562     0.38100
H1042       H  0.29610561  0.93660036  0.35677498     0.32500
H1043       H  0.22526655  0.91412675  0.37451081     0.31400
H1044       H  0.20331356  0.91672220  0.42989895     0.33100
H1045       H  0.21242908  0.91705545  0.47569579     0.32000
H1046       H  0.32907064  0.88219853  0.39593707     0.36000
H1047       H  0.29724569  0.85385488  0.41537812     0.28800
H1048       H  0.26930402  0.02022998  0.43645841     0.33000
H1049       H  0.23136745  0.95781306  0.51244180     0.35900
H1050       H  0.24761348  0.92447544  0.36751304     0.28500
H1051       H  0.31933350  0.85841823  0.42772460     0.41300
H1052       H  0.36523783  0.93858842  0.46236473     0.31400
H1053       H  0.35539212  0.91110727  0.40509821     0.39000
H1054       H  0.21081408  0.94154282  0.46821884     0.30900
H1055       H  0.32725617  0.97201871  0.49721117     0.30900
H1056       H  0.26377733  0.00921939  0.45892254     0.31200
Zr1057     Zr  0.41119455  0.88592764  0.30051577     2.17500
O1058       O  0.40471478  0.85053850  0.31739880    -0.51200
O1059       O  0.43227119  0.86720934  0.27244722    -0.74400
O1060       O  0.37933791  0.86751377  0.28429846    -0.81200
O1061       O  0.45695502  0.89852824  0.34120921    -0.82900
O1062       O  0.35938407  0.89263317  0.26485827    -0.78500
O1063       O  0.43843373  0.87029924  0.32509098    -0.90200
O1064       O  0.45032758  0.89213983  0.25227711    -0.76100
O1065       O  0.40667561  0.90620924  0.26763392    -0.85600
O1066       O  0.44257894  0.90888779  0.29755675    -0.85300
O1067       O  0.37721059  0.90597881  0.30660209    -0.72100
O1068       O  0.41258673  0.90756758  0.33406142    -0.84200
Zr1069     Zr  0.40048389  0.97347811  0.30641766     2.26400
Zr1070     Zr  0.37377630  0.92776519  0.27402656     2.06300
Zr1071     Zr  0.44170066  0.93304954  0.32920862     2.10000
Zr1072     Zr  0.43693345  0.92984663  0.26576007     1.78800
O1073       O  0.45422859  0.93090121  0.36719734    -0.93000
O1074       O  0.42534353  0.92898436  0.22729568    -0.40800
O1075       O  0.43174000  0.95121907  0.29822969    -0.77400
O1076       O  0.40365408  0.95254973  0.27160620    -0.96100
O1077       O  0.37189417  0.94791101  0.30826761    -0.89400
O1078       O  0.40744437  0.95166848  0.33785744    -0.92300
C1079       C  0.44619121  0.87203773  0.25759872     1.01500
C1080       C  0.45298741  0.87806908  0.33823534     1.14400
C1081       C  0.36264952  0.87354131  0.27264357     1.05200
O1082       O  0.37492883  0.92418632  0.23388813    -0.94400
O1083       O  0.35908293  0.96232107  0.26189809    -0.90200
O1084       O  0.36435063  0.98496381  0.29123658    -0.83300
C1085       C  0.35280880  0.97823681  0.27470028     1.11800
O1086       O  0.36673870  0.89294174  0.35722901    -0.96400
Zr1087     Zr  0.37849994  0.92677306  0.34026151     1.88900
O1088       O  0.37141167  0.98846425  0.33174673    -0.73100
O1089       O  0.33358867  0.93077946  0.27648697    -0.52300
O1090       O  0.33948158  0.92147292  0.34709621    -0.97000
O1091       O  0.39594991  0.92871495  0.37651657    -0.54200
O1092       O  0.35964151  0.96020453  0.35241076    -0.73600
C1093       C  0.35882258  0.98029383  0.34659338     0.98800
O1094       O  0.41095118  0.00734582  0.28879362    -0.62400
O1095       O  0.47926867  0.94035926  0.31737487    -0.57200
O1096       O  0.42190479  0.99362157  0.33469581    -0.93900
O1097       O  0.44692364  0.96854290  0.34724778    -0.92300
O1098       O  0.47700979  0.93213430  0.26761293    -0.92700
O1099       O  0.45402882  0.95942439  0.24575885    -0.91400
C1100       C  0.43747942  0.98769486  0.34790817     1.17600
H1101       H  0.45625381  0.90046995  0.29655011     0.33600
H1102       H  0.40166755  0.96221312  0.25929978     0.44400
H1103       H  0.40734195  0.96000332  0.35164492     0.37900
H1104       H  0.36472515  0.89660347  0.30838282     0.34400
H1105       H  0.43914975  0.92952684  0.21851008     0.26200
H1106       H  0.32783386  0.92116146  0.26451406     0.32100
H1107       H  0.33360212  0.91624235  0.33271338     0.38100
H1108       H  0.48263067  0.92044206  0.25720313     0.32500
H1109       H  0.48559565  0.94895217  0.32981800     0.31400
H1110       H  0.46998046  0.93487092  0.36683531     0.33100
H1111       H  0.39147733  0.91544869  0.38439928     0.32000
H1112       H  0.44468411  0.97266000  0.24924479     0.36000
H1113       H  0.42127634  0.00254697  0.27678848     0.28800
H1114       H  0.40436007  0.83958321  0.30502098     0.33000
H1115       H  0.38024418  0.88347489  0.35778289     0.35900
H1116       H  0.48697613  0.92581638  0.31794269     0.28500
H1117       H  0.39745211  0.01232775  0.28103405     0.41300
H1118       H  0.35929227  0.92533050  0.22932160     0.31400
H1119       H  0.42012516  0.91383561  0.22463482     0.39000
H1120       H  0.38848248  0.94123817  0.38449173     0.30900
H1121       H  0.32970491  0.92349730  0.29038890     0.30900
H1122       H  0.38939801  0.85156021  0.32317833     0.31200
Zr1123     Zr  0.17864003  0.70692527  0.63835859     2.17500
O1124       O  0.17725866  0.70648415  0.59802960    -0.51200
O1125       O  0.19360545  0.74341259  0.63983680    -0.74400
O1126       O  0.14725110  0.72721011  0.62344653    -0.81200
O1127       O  0.21901515  0.65751258  0.63479180    -0.82900
O1128       O  0.12720903  0.74137673  0.65263916    -0.78500
O1129       O  0.20712224  0.68761787  0.61606310    -0.90200
O1130       O  0.22495158  0.74109380  0.65861790    -0.76100
O1131       O  0.17761558  0.73321265  0.66812611    -0.85600
O1132       O  0.21011443  0.69910163  0.66074954    -0.85300
O1133       O  0.14436630  0.69954850  0.65639514    -0.72100
O1134       O  0.17505815  0.66927761  0.64923912    -0.84200
Zr1135     Zr  0.16919940  0.68125769  0.72160572     2.26400
Zr1136     Zr  0.14353249  0.72652000  0.68605465     2.06300
Zr1137     Zr  0.20603798  0.66229395  0.67269726     2.10000
Zr1138     Zr  0.20835690  0.72468980  0.69109775     1.78800
O1139       O  0.20585824  0.62344406  0.66180496    -0.93000
O1140       O  0.20399208  0.76396966  0.69964933    -0.40800
O1141       O  0.20408578  0.68768082  0.70360637    -0.77400
O1142       O  0.17409173  0.71880615  0.71015853    -0.96100
O1143       O  0.13919910  0.68959456  0.69790367    -0.89400
O1144       O  0.17213883  0.65576735  0.69114114    -0.92300
C1145       C  0.21409846  0.74683231  0.64153893     1.01500
C1146       C  0.21881931  0.66980287  0.61784172     1.14400
C1147       C  0.13060714  0.73794809  0.63182997     1.05200
O1148       O  0.14795062  0.76597341  0.69164550    -0.94400
O1149       O  0.13330506  0.73064645  0.72441852    -0.90200
O1150       O  0.13419176  0.69629342  0.73730319    -0.83300
C1151       C  0.12476736  0.71537778  0.73545774     1.11800
O1152       O  0.12600012  0.65814262  0.63182728    -0.96400
Zr1153     Zr  0.14124788  0.66317746  0.66870369     1.88900
O1154       O  0.14584784  0.65039292  0.73072136    -0.73100
O1155       O  0.10353615  0.73026332  0.68993421    -0.52300
O1156       O  0.10174203  0.67181194  0.66934916    -0.97000
O1157       O  0.14523081  0.62445332  0.65781119    -0.54200
O1158       O  0.12647626  0.64311207  0.69935712    -0.73600
C1159       C  0.13106340  0.64002706  0.71973556     0.98800
O1160       O  0.18091558  0.69288707  0.75843692    -0.62400
O1161       O  0.24605763  0.66291101  0.67630823    -0.57200
O1162       O  0.19309452  0.65057942  0.73324010    -0.93900
O1163       O  0.21580388  0.64042571  0.70435334    -0.92300
O1164       O  0.24747428  0.71577213  0.69536538    -0.92700
O1165       O  0.22363259  0.73479646  0.72697264    -0.91400
C1166       C  0.20841730  0.63830899  0.72410391     1.17600
H1167       H  0.22382325  0.70033615  0.65268713     0.33600
H1168       H  0.17360096  0.72862289  0.72295436     0.44400
H1169       H  0.17191662  0.64071113  0.69587148     0.37900
H1170       H  0.13167422  0.70073990  0.64697868     0.34400
H1171       H  0.21875435  0.77000527  0.69685640     0.26200
H1172       H  0.09976411  0.74562790  0.68602322     0.32100
H1173       H  0.09769664  0.67341456  0.68519523     0.38100
H1174       H  0.25308445  0.71276967  0.68016325     0.32500
H1175       H  0.25101593  0.64736664  0.67402496     0.31400
H1176       H  0.22157293  0.61859899  0.66191995     0.33100
H1177       H  0.12993850  0.61969565  0.65532477     0.32000
H1178       H  0.21259892  0.72998649  0.73785699     0.36000
H1179       H  0.19722359  0.69146533  0.75790069     0.28800
H1180       H  0.17782996  0.72208332  0.59369640     0.33000
H1181       H  0.11266320  0.64926877  0.63370178     0.35900
H1182       H  0.25135447  0.67039840  0.66299935     0.28500
H1183       H  0.17786080  0.70897784  0.75914780     0.41300
H1184       H  0.13489001  0.77089369  0.70051977     0.31400
H1185       H  0.19470419  0.76982226  0.68762700     0.39000
H1186       H  0.14997317  0.61677088  0.67128735     0.30900
H1187       H  0.09750185  0.72105291  0.67778464     0.30900
H1188       H  0.16232012  0.70165808  0.59386454     0.31200
Zr1189     Zr  0.21485133  0.57592679  0.56365217     2.17500
O1190       O  0.24829042  0.55351633  0.55762334    -0.51200
O1191       O  0.22983535  0.60782723  0.58294413    -0.74400
O1192       O  0.23875414  0.59866830  0.54140080    -0.81200
O1193       O  0.19276268  0.54191748  0.61092377    -0.82900
O1194       O  0.21811899  0.62122598  0.51968995    -0.78500
O1195       O  0.22425911  0.55764182  0.59894135    -0.90200
O1196       O  0.20186329  0.63310307  0.58837280    -0.76100
O1197       O  0.19537753  0.60869273  0.55422566    -0.85600
O1198       O  0.18593818  0.58128938  0.59000090    -0.85300
O1199       O  0.20205319  0.57007024  0.52606888    -0.72100
O1200       O  0.19236178  0.54405376  0.55834764    -0.84200
Zr1201     Zr  0.13173026  0.57830903  0.54135568     2.26400
Zr1202     Zr  0.18260302  0.60373542  0.51744106     2.06300
Zr1203     Zr  0.16361176  0.54967873  0.58543645     2.10000
Zr1204     Zr  0.16737747  0.61449830  0.58109563     1.78800
O1205       O  0.16882879  0.51051576  0.59190735    -0.93000
O1206       O  0.15801630  0.65285073  0.57396876    -0.40800
O1207       O  0.14395133  0.58324448  0.57848481    -0.77400
O1208       O  0.15363067  0.61053755  0.54410527    -0.96100
O1209       O  0.15916105  0.57312789  0.51351132    -0.89400
O1210       O  0.15061973  0.54475986  0.54889984    -0.92300
C1211       C  0.22238828  0.62726351  0.58819089     1.01500
C1212       C  0.21304346  0.54685640  0.61323035     1.14400
C1213       C  0.23642874  0.61496431  0.52827408     1.05200
O1214       O  0.18134723  0.64196376  0.50622928    -0.94400
O1215       O  0.15166610  0.61227543  0.49331145    -0.90200
O1216       O  0.12141333  0.59695249  0.50843334    -0.83300
C1217       C  0.13104358  0.60789768  0.49347911     1.11800
O1218       O  0.21104329  0.51963446  0.50928607    -0.96400
Zr1219     Zr  0.17746639  0.53947651  0.52135292     1.88900
O1220       O  0.11515788  0.55330800  0.51637355    -0.73100
O1221       O  0.19934042  0.59151335  0.48242410    -0.52300
O1222       O  0.18141089  0.54185122  0.48140921    -0.97000
O1223       O  0.17804308  0.50040778  0.52975905    -0.54200
O1224       O  0.14072555  0.52655886  0.50742410    -0.73600
C1225       C  0.12065571  0.53462119  0.50773319     0.98800
O1226       O  0.09998580  0.60123120  0.55219879    -0.62400
O1227       O  0.14623248  0.55790559  0.62118636    -0.57200
O1228       O  0.10688830  0.55290930  0.55845980    -0.93900
O1229       O  0.12707680  0.53417846  0.58382693    -0.92300
O1230       O  0.17248248  0.61703063  0.62087386    -0.92700
O1231       O  0.13222472  0.62529734  0.59803541    -0.91400
C1232       C  0.10944675  0.53760240  0.57255279     1.17600
H1233       H  0.19140867  0.58302648  0.60484564     0.33600
H1234       H  0.14496687  0.62344906  0.54025345     0.44400
H1235       H  0.14183703  0.53182912  0.54755097     0.37900
H1236       H  0.21463632  0.56787348  0.51630314     0.34400
H1237       H  0.16619503  0.66131100  0.58530964     0.26200
H1238       H  0.18679374  0.58651913  0.47334145     0.32100
H1239       H  0.17279941  0.52949008  0.47530781     0.38100
H1240       H  0.17346740  0.63302510  0.62406898     0.32500
H1241       H  0.14488670  0.54339253  0.62810045     0.31400
H1242       H  0.15773242  0.50720041  0.60335201     0.33100
H1243       H  0.17071781  0.49316696  0.51703186     0.32000
H1244       H  0.12852045  0.61298726  0.60770704     0.36000
H1245       H  0.09676499  0.59676645  0.56748168     0.28800
H1246       H  0.26050612  0.56347516  0.56129349     0.33000
H1247       H  0.20646972  0.50936930  0.49729531     0.35900
H1248       H  0.15766181  0.56546413  0.62997309     0.28500
H1249       H  0.10585317  0.61624789  0.55388176     0.41300
H1250       H  0.18041045  0.65064093  0.52027497     0.31400
H1251       H  0.16556022  0.65592220  0.55987341     0.39000
H1252       H  0.16751230  0.49911974  0.54220269     0.30900
H1253       H  0.20398134  0.60525394  0.47546212     0.30900
H1254       H  0.24924174  0.55129667  0.54137345     0.31200
Zr1255     Zr  0.05072380  0.72158802  0.55668852     2.17500
O1256       O  0.03783974  0.75762273  0.54469792    -0.51200
O1257       O  0.07322635  0.73214635  0.58774640    -0.74400
O1258       O  0.02929485  0.73375064  0.59015920    -0.81200
O1259       O  0.10371601  0.71225453  0.52256854    -0.82900
O1260       O  0.01239886  0.70311396  0.60190288    -0.78500
O1261       O  0.08655360  0.73750408  0.54574704    -0.90200
O1262       O  0.08180208  0.69978244  0.60429568    -0.76100
O1263       O  0.04246937  0.69334351  0.58150453    -0.85600
O1264       O  0.07983125  0.69459201  0.55476353    -0.85300
O1265       O  0.01584693  0.70641534  0.54461118    -0.72100
O1266       O  0.05048255  0.70743501  0.51886400    -0.84200
Zr1267     Zr  0.04166825  0.63771749  0.53250490     2.26400
Zr1268     Zr  0.00878847  0.67782741  0.57023223     2.06300
Zr1269     Zr  0.08068062  0.68126676  0.51731633     2.10000
Zr1270     Zr  0.07222039  0.66806106  0.58111077     1.78800
O1271       O  0.08550523  0.69848790  0.48173281    -0.93000
O1272       O  0.05897794  0.66040707  0.61821074    -0.40800
O1273       O  0.07544618  0.65332855  0.54395594    -0.77400
O1274       O  0.03886266  0.65129258  0.56998635    -0.96100
O1275       O  0.01012975  0.66196736  0.53383999    -0.89400
O1276       O  0.04734481  0.66496782  0.50584315    -0.92300
C1277       C  0.08177389  0.72088781  0.60327062     1.01500
C1278       C  0.10340168  0.72997472  0.53439179     1.14400
C1279       C  0.01899832  0.72290137  0.60502754     1.05200
O1280       O  0.98595866  0.66887094  0.60187664    -0.94400
O1281       O  0.99470909  0.64096680  0.57316317    -0.90200
O1282       O  0.01342364  0.61691602  0.55009353    -0.83300
C1283       C  0.99888749  0.62158762  0.56500588     1.11800
O1284       O  0.00446802  0.72474042  0.49284408    -0.96400
Zr1285     Zr  0.01660232  0.68956665  0.50780355     1.88900
O1286       O  0.01934747  0.62666937  0.50278535    -0.73100
O1287       O  0.97326095  0.69405083  0.56001399    -0.52300
O1288       O  0.97678429  0.69465417  0.51203180    -0.97000
O1289       O  0.02637605  0.69517361  0.46920664    -0.54200
O1290       O  0.00190853  0.65639902  0.48811711    -0.73600
C1291       C  0.00566007  0.63541095  0.48958380     0.98800
O1292       O  0.05524794  0.60080682  0.54084270    -0.62400
O1293       O  0.11841865  0.66660398  0.51920492    -0.57200
O1294       O  0.06757468  0.62220690  0.50501953    -0.93900
O1295       O  0.08883261  0.64994071  0.49315666    -0.92300
O1296       O  0.11230194  0.66551409  0.58258131    -0.92700
O1297       O  0.08419166  0.63166260  0.59227181    -0.91400
C1298       C  0.08267672  0.62990905  0.49258633     1.17600
H1299       H  0.09385212  0.70004506  0.55954109     0.33600
H1300       H  0.03608328  0.63953746  0.58003630     0.44400
H1301       H  0.04839389  0.65882736  0.49098944     0.37900
H1302       H  0.00447471  0.71783565  0.54553952     0.34400
H1303       H  0.07024277  0.66641474  0.62833487     0.26200
H1304       H  0.96230364  0.68322694  0.56466258     0.32100
H1305       H  0.97096662  0.67956595  0.51212420     0.38100
H1306       H  0.11715507  0.68029465  0.58744569     0.32500
H1307       H  0.12682097  0.67490367  0.50821365     0.31400
H1308       H  0.09731286  0.68956962  0.47416367     0.33100
H1309       H  0.02741193  0.68025182  0.46227704     0.32000
H1310       H  0.07142267  0.62223217  0.58920286     0.36000
H1311       H  0.05280265  0.59941362  0.55691927     0.28800
H1312       H  0.04268919  0.76798556  0.55647968     0.33000
H1313       H  0.99254354  0.72121392  0.48230239     0.35900
H1314       H  0.12394712  0.67184165  0.53372652     0.28500
H1315       H  0.04471524  0.59062568  0.53380958     0.41300
H1316       H  0.99650596  0.66344590  0.61307492     0.31400
H1317       H  0.04590474  0.67031883  0.62048448     0.39000
H1318       H  0.04179271  0.70017035  0.46962893     0.30900
H1319       H  0.97102044  0.70672333  0.57045874     0.30900
H1320       H  0.02159019  0.75737117  0.54640007     0.31200
Zr1321     Zr  0.04663895  0.56566918  0.71198537     2.17500
O1322       O  0.03318318  0.55009295  0.74610095    -0.51200
O1323       O  0.07158711  0.59354094  0.72656660    -0.74400
O1324       O  0.08106257  0.54842592  0.72654546    -0.81200
O1325       O  0.00022176  0.60891728  0.70374898    -0.82900
O1326       O  0.09500643  0.52455791  0.70016021    -0.78500
O1327       O  0.02655922  0.59844788  0.72825906    -0.90200
O1328       O  0.08794212  0.60762702  0.69623905    -0.76100
O1329       O  0.07634128  0.56087057  0.68650475    -0.85600
O1330       O  0.04315431  0.59486475  0.68660767    -0.85300
O1331       O  0.04139599  0.53007628  0.69337425    -0.72100
O1332       O  0.01154307  0.56038513  0.69338882    -0.84200
Zr1333     Zr  0.03590715  0.55480319  0.62551549     2.26400
Zr1334     Zr  0.07166967  0.52617926  0.66796166     2.06300
Zr1335     Zr  0.00833007  0.59068079  0.66900794     2.10000
Zr1336     Zr  0.07398142  0.59097845  0.66266384     1.78800
O1337       O  0.96909239  0.58827755  0.67719205    -0.93000
O1338       O  0.11331965  0.58169554  0.66097165    -0.40800
O1339       O  0.03919351  0.58951748  0.64411560    -0.77400
O1340       O  0.07093175  0.55662618  0.64333333    -0.96100
O1341       O  0.03825930  0.52314137  0.64790319    -0.89400
O1342       O  0.00459765  0.55689668  0.64912475    -0.92300
C1343       C  0.08489693  0.60662242  0.71714732     1.01500
C1344       C  0.01068403  0.61140968  0.72187356     1.14400
C1345       C  0.09592891  0.53444110  0.71907371     1.05200
O1346       O  0.10972388  0.51283830  0.66377170    -0.94400
O1347       O  0.08269930  0.51320887  0.63117686    -0.90200
O1348       O  0.05871475  0.52785179  0.60638917    -0.83300
C1349       C  0.07583714  0.51635567  0.61146124     1.11800
O1350       O  0.99064496  0.51194225  0.70538506    -0.96400
Zr1351     Zr  0.00762199  0.52611991  0.67212133     1.88900
O1352       O  0.01240135  0.52927230  0.60816936    -0.73100
O1353       O  0.06244244  0.48858675  0.67664940    -0.52300
O1354       O  0.01478371  0.48680991  0.67637795    -0.97000
O1355       O  0.96756351  0.53118831  0.67305895    -0.54200
O1356       O  0.99585960  0.51018823  0.63528631    -0.73600
C1357       C  0.99995276  0.51410564  0.61465031     0.98800
O1358       O  0.05103007  0.57046707  0.59210923    -0.62400
O1359       O  0.00615707  0.63017801  0.66266373    -0.57200
O1360       O  0.00873425  0.57787838  0.60744646    -0.93900
O1361       O  0.99176314  0.59950079  0.63392881    -0.92300
O1362       O  0.07222719  0.63088861  0.66007711    -0.92700
O1363       O  0.08840227  0.60443326  0.62813018    -0.91400
C1364       C  0.99475360  0.59298230  0.61382461     1.17600
H1365       H  0.04389127  0.60931012  0.69358089     0.33600
H1366       H  0.08273444  0.55527093  0.63262987     0.44400
H1367       H  0.99098877  0.55661417  0.64086957     0.37900
H1368       H  0.04235192  0.51862328  0.70416645     0.34400
H1369       H  0.11785735  0.58003138  0.67655013     0.26200
H1370       H  0.06369601  0.48039072  0.66233116     0.32100
H1371       H  0.00329491  0.47951698  0.66745710     0.38100
H1372       H  0.05626497  0.63474833  0.66046427     0.32500
H1373       H  0.99034236  0.63428627  0.66462929     0.31400
H1374       H  0.96185706  0.59932853  0.66769896     0.33100
H1375       H  0.96337766  0.53640287  0.65825454     0.32000
H1376       H  0.09147267  0.59111938  0.61876010     0.36000
H1377       H  0.04935191  0.58658713  0.59463200     0.28800
H1378       H  0.01719405  0.55385433  0.74641102     0.33000
H1379       H  0.98015533  0.50070102  0.70022780     0.35900
H1380       H  0.01355180  0.63723602  0.67545081     0.28500
H1381       H  0.06715642  0.56762628  0.59285870     0.41300
H1382       H  0.11745929  0.52490028  0.65648774     0.31400
H1383       H  0.11429212  0.56656632  0.65456523     0.39000
H1384       H  0.96481614  0.54407129  0.68311714     0.30900
H1385       H  0.07511742  0.48309330  0.68536351     0.30900
H1386       H  0.03949947  0.55941473  0.75801190     0.31200
Zr1387     Zr  0.22145495  0.71251946  0.53348366     2.17500
O1388       O  0.21096250  0.68208327  0.55654211    -0.51200
O1389       O  0.18071639  0.71585283  0.53712040    -0.74400
O1390       O  0.22737697  0.72372514  0.57180269    -0.81200
O1391       O  0.24491241  0.67226285  0.48900652    -0.82900
O1392       O  0.23553544  0.76009005  0.57474974    -0.78500
O1393       O  0.23558980  0.67407503  0.52547335    -0.90200
O1394       O  0.16831850  0.74709905  0.52102709    -0.76100
O1395       O  0.21016629  0.75027490  0.53084471    -0.85600
O1396       O  0.20622292  0.71589310  0.49730970    -0.85300
O1397       O  0.25426366  0.73400521  0.53990481    -0.72100
O1398       O  0.25067836  0.70503282  0.50793726    -0.84200
Zr1399     Zr  0.25801032  0.76622668  0.47585882     2.26400
Zr1400     Zr  0.24225901  0.77184841  0.53692822     2.06300
Zr1401     Zr  0.23595357  0.70744944  0.47196325     2.10000
Zr1402     Zr  0.19633121  0.75415426  0.49426339     1.78800
O1403       O  0.24524262  0.67565937  0.44799557    -0.93000
O1404       O  0.17851817  0.78960223  0.50352279    -0.40800
O1405       O  0.22551581  0.74537918  0.46841730    -0.77400
O1406       O  0.22790123  0.77616028  0.50031697    -0.96100
O1407       O  0.27228033  0.76252873  0.51212188    -0.89400
O1408       O  0.26862701  0.72837337  0.47792083    -0.92300
C1409       C  0.16545768  0.73037781  0.53293144     1.01500
C1410       C  0.24406942  0.66384415  0.50829113     1.14400
C1411       C  0.23152112  0.74130038  0.58307471     1.05200
O1412       O  0.21565237  0.79770924  0.55414323    -0.94400
O1413       O  0.25006450  0.80915076  0.52476503    -0.90200
O1414       O  0.26427596  0.80387959  0.48999989    -0.83300
C1415       C  0.25916830  0.81615564  0.50709547     1.11800
O1416       O  0.29338102  0.70059840  0.54414579    -0.96400
Zr1417     Zr  0.28336619  0.72480141  0.51402028     1.88900
O1418       O  0.29798708  0.76504549  0.47124706    -0.73100
O1419       O  0.27366811  0.78444517  0.55833929    -0.52300
O1420       O  0.31144411  0.74133981  0.53735003    -0.97000
O1421       O  0.29892330  0.68985772  0.49975817    -0.54200
O1422       O  0.31305841  0.73685379  0.49056843    -0.73600
C1423       C  0.31435717  0.75264193  0.47700353     0.98800
O1424       O  0.24856439  0.79353895  0.44829628    -0.62400
O1425       O  0.20031678  0.70023483  0.45508116    -0.57200
O1426       O  0.26390078  0.75152778  0.43839279    -0.93900
O1427       O  0.25089713  0.71665481  0.43602177    -0.92300
O1428       O  0.16887429  0.73438414  0.47283167    -0.92700
O1429       O  0.18356797  0.77484211  0.46259781    -0.91400
C1430       C  0.26021326  0.73336997  0.42781976     1.17600
H1431       H  0.19382542  0.70633334  0.49547286     0.33600
H1432       H  0.22329300  0.79125283  0.49803794     0.44400
H1433       H  0.27981540  0.72405499  0.46709454     0.37900
H1434       H  0.26106872  0.73145397  0.55403251     0.34400
H1435       H  0.16248757  0.78696027  0.50256002     0.26200
H1436       H  0.26814048  0.79792159  0.56630738     0.32100
H1437       H  0.30593190  0.75654495  0.54060176     0.38100
H1438       H  0.15473991  0.74234719  0.47610981     0.32500
H1439       H  0.20329222  0.69990867  0.43896504     0.31400
H1440       H  0.23120672  0.66810536  0.44520193     0.33100
H1441       H  0.31494138  0.69231729  0.49822437     0.32000
H1442       H  0.19690677  0.77664281  0.45335976     0.36000
H1443       H  0.23806791  0.78610107  0.43829887     0.28800
H1444       H  0.19877931  0.67493916  0.54851465     0.33000
H1445       H  0.30960725  0.69846061  0.54310534     0.35900
H1446       H  0.19712056  0.68480245  0.45863232     0.28500
H1447       H  0.23927897  0.80484058  0.45623214     0.41300
H1448       H  0.20293842  0.78863708  0.55813239     0.31400
H1449       H  0.18126955  0.79190564  0.51951794     0.39000
H1450       H  0.29353525  0.68856637  0.48437472     0.30900
H1451       H  0.27582768  0.77347731  0.57001878     0.30900
H1452       H  0.20374952  0.68901419  0.56972294     0.31200
Zr1453     Zr  0.20436177  0.53559349  0.73176359     2.17500
O1454       O  0.17448465  0.56334831  0.73258240    -0.51200
O1455       O  0.20447288  0.53813608  0.69135377    -0.74400
O1456       O  0.21703597  0.57295742  0.73248108    -0.81200
O1457       O  0.16165705  0.49166449  0.73853412    -0.82900
O1458       O  0.25408723  0.57318782  0.73825415    -0.78500
O1459       O  0.16494473  0.52821850  0.73241144    -0.90200
O1460       O  0.23220019  0.51717736  0.67579958    -0.76100
O1461       O  0.24110549  0.52974081  0.71821623    -0.85600
O1462       O  0.20599044  0.49865017  0.71798061    -0.85300
O1463       O  0.22803629  0.54266818  0.76289739    -0.72100
O1464       O  0.19565494  0.51370202  0.76296394    -0.84200
Zr1465     Zr  0.25857017  0.47631214  0.76711992     2.26400
Zr1466     Zr  0.26500243  0.53565897  0.74923625     2.06300
Zr1467     Zr  0.19801909  0.47649194  0.74904083     2.10000
Zr1468     Zr  0.24285229  0.49251537  0.70507332     1.78800
O1469       O  0.17188840  0.46504722  0.77698384    -0.93000
O1470       O  0.27750638  0.49977166  0.68633889    -0.40800
O1471       O  0.23502843  0.46963601  0.73586458    -0.77400
O1472       O  0.26708637  0.49820774  0.73554070    -0.96100
O1473       O  0.25690761  0.51351486  0.78038441    -0.89400
O1474       O  0.22175571  0.48247211  0.78040235    -0.92300
C1475       C  0.21635042  0.53143112  0.67469257     1.01500
C1476       C  0.15348092  0.51081097  0.73401561     1.14400
C1477       C  0.23540905  0.58280562  0.73413631     1.05200
O1478       O  0.29247497  0.54833298  0.72324450    -0.94400
O1479       O  0.30170600  0.51961754  0.75820365    -0.90200
O1480       O  0.29805026  0.48302284  0.76431276    -0.83300
C1481       C  0.30976137  0.50021236  0.76214034     1.11800
O1482       O  0.18979831  0.54543136  0.80373206    -0.96400
Zr1483     Zr  0.22010390  0.51998107  0.79347357     1.88900
O1484       O  0.26196148  0.47872800  0.80780789    -0.73100
O1485       O  0.27744874  0.56022965  0.77875634    -0.52300
O1486       O  0.23418245  0.55296050  0.81173771    -0.97000
O1487       O  0.19476891  0.50322311  0.81925689    -0.54200
O1488       O  0.24287809  0.50762516  0.82370417    -0.73600
C1489       C  0.25629198  0.49111008  0.82465875     0.98800
O1490       O  0.28740659  0.44757540  0.76878379    -0.62400
O1491       O  0.18438762  0.45088992  0.72094280    -0.57200
O1492       O  0.24451200  0.43856463  0.76617109    -0.93900
O1493       O  0.20835944  0.43836324  0.75626990    -0.92300
O1494       O  0.22057558  0.47103296  0.67945963    -0.92700
O1495       O  0.26208890  0.45866686  0.69277296    -0.91400
C1496       C  0.22633845  0.42867412  0.76218771     1.17600
H1497       H  0.19543251  0.49653756  0.70630667     0.33600
H1498       H  0.28164977  0.49464976  0.72976255     0.44400
H1499       H  0.21844680  0.47242973  0.79206174     0.37900
H1500       H  0.22633469  0.55768446  0.76835776     0.34400
H1501       H  0.27478152  0.49614044  0.67056373     0.26200
H1502       H  0.28358125  0.55034139  0.79008025     0.32100
H1503       H  0.22962426  0.55196486  0.82741598     0.38100
H1504       H  0.22720380  0.47333189  0.66472184     0.32500
H1505       H  0.17091337  0.44480543  0.72752700     0.31400
H1506       H  0.16126614  0.45586779  0.76875773     0.33100
H1507       H  0.20313951  0.49078335  0.82573258     0.32000
H1508       H  0.25827742  0.44764754  0.70387840     0.36000
H1509       H  0.28370315  0.43847085  0.78158668     0.28800
H1510       H  0.17669193  0.57243364  0.71941175     0.33000
H1511       H  0.18965894  0.54627064  0.82009944     0.35900
H1512       H  0.17888981  0.46020005  0.70885599     0.28500
H1513       H  0.28540870  0.43788769  0.75557915     0.41300
H1514       H  0.28412295  0.55134783  0.70958701     0.31400
H1515       H  0.27856144  0.51601164  0.68694793     0.39000
H1516       H  0.18362162  0.49614885  0.80972956     0.30900
H1517       H  0.29049134  0.56738867  0.77246143     0.30900
H1518       H  0.17731940  0.57325335  0.74544737     0.31200
Zr1519     Zr  0.56331061  0.51418859  0.17734549     2.17500
O1520       O  0.55654319  0.47736087  0.19038878    -0.51200
O1521       O  0.59116927  0.50397161  0.14893561    -0.74400
O1522       O  0.54639160  0.49491209  0.14551955    -0.81200
O1523       O  0.59566060  0.52751669  0.22971219    -0.82900
O1524       O  0.51847816  0.51711593  0.13334962    -0.78500
O1525       O  0.59499485  0.50325958  0.20057519    -0.90200
O1526       O  0.60067052  0.53587335  0.13287629    -0.76100
O1527       O  0.55526735  0.53840516  0.14810168    -0.85600
O1528       O  0.58891501  0.54315505  0.18065173    -0.85300
O1529       O  0.52545175  0.52719361  0.18356780    -0.72100
O1530       O  0.55490996  0.53246166  0.21251468    -0.84200
Zr1531     Zr  0.53802487  0.59858687  0.18871341     2.26400
Zr1532     Zr  0.51808727  0.55148259  0.15382878     2.06300
Zr1533     Zr  0.58088250  0.56133432  0.21540097     2.10000
Zr1534     Zr  0.58160306  0.56655317  0.15061524     1.78800
O1535       O  0.58138067  0.56267197  0.25569509    -0.93000
O1536       O  0.57557038  0.56901506  0.11093545    -0.40800
O1537       O  0.57536744  0.58543130  0.18516916    -0.77400
O1538       O  0.54463932  0.58007951  0.15407060    -0.96100
O1539       O  0.51064344  0.57119597  0.18749806    -0.89400
O1540       O  0.54446740  0.57610667  0.21978825    -0.92300
C1541       C  0.60194672  0.51497507  0.13470401     1.01500
C1542       C  0.60292947  0.51038515  0.21914926     1.14400
C1543       C  0.53049140  0.49951526  0.13216443     1.05200
O1544       O  0.50525210  0.55258702  0.11592904    -0.94400
O1545       O  0.50291162  0.58549949  0.13958403    -0.90200
O1546       O  0.51083788  0.61350724  0.16359673    -0.83300
C1547       C  0.50270330  0.60591226  0.14556241     1.11800
O1548       O  0.50579054  0.51439949  0.23460873    -0.96400
Zr1549     Zr  0.51815445  0.54802609  0.21771223     1.88900
O1550       O  0.51035268  0.61083492  0.21434298    -0.73100
O1551       O  0.48091649  0.54145843  0.16426257    -0.52300
O1552       O  0.47934409  0.54047782  0.21156246    -0.97000
O1553       O  0.52664853  0.54543076  0.25693086    -0.54200
O1554       O  0.50039571  0.58158229  0.23465439    -0.73600
C1555       C  0.49996069  0.60226397  0.23018490     0.98800
O1556       O  0.54668770  0.63479310  0.17470980    -0.62400
O1557       O  0.62072423  0.56494839  0.21233817    -0.57200
O1558       O  0.55929271  0.62098675  0.21371661    -0.93900
O1559       O  0.58732548  0.59917337  0.22631513    -0.92300
O1560       O  0.62023601  0.57497590  0.15664793    -0.92700
O1561       O  0.58965607  0.60258312  0.13625756    -0.91400
C1562       C  0.57760904  0.61794354  0.22371497     1.17600
H1563       H  0.60401280  0.53770413  0.17999342     0.33600
H1564       H  0.54260209  0.59009051  0.14209230     0.44400
H1565       H  0.54328236  0.58449104  0.23349277     0.37900
H1566       H  0.51572883  0.51484351  0.18264496     0.34400
H1567       H  0.57071564  0.55421502  0.10613186     0.26200
H1568       H  0.47120926  0.54961219  0.15402689     0.32100
H1569       H  0.47214384  0.55512678  0.20978337     0.38100
H1570       H  0.62818683  0.56055040  0.15686132     0.32500
H1571       H  0.62269933  0.57832308  0.20357372     0.31400
H1572       H  0.59382929  0.57221500  0.25968438     0.33100
H1573       H  0.52845298  0.56079467  0.26232342     0.32000
H1574       H  0.58251597  0.61314547  0.14693252     0.36000
H1575       H  0.56274691  0.63634856  0.17688711     0.28800
H1576       H  0.56508787  0.46744841  0.18010346     0.33000
H1577       H  0.49484301  0.51922809  0.24606045     0.35900
H1578       H  0.62552343  0.56922607  0.22742263     0.28500
H1579       H  0.54528809  0.63335908  0.15846367     0.41300
H1580       H  0.51799588  0.55834262  0.10775021     0.31400
H1581       H  0.56226075  0.57859793  0.10936301     0.39000
H1582       H  0.54170950  0.53877623  0.25730741     0.30900
H1583       H  0.47981029  0.52583478  0.15943730     0.30900
H1584       H  0.54091239  0.47472399  0.18673529     0.31200
Zr1585     Zr  0.67573113  0.52412411  0.05117024     2.17500
O1586       O  0.68806793  0.48855514  0.03567649    -0.51200
O1587       O  0.65531851  0.51179422  0.08326438    -0.74400
O1588       O  0.69994778  0.51010912  0.08051355    -0.81200
O1589       O  0.62348826  0.53218610  0.01732324    -0.82900
O1590       O  0.72440484  0.53654156  0.09000173    -0.78500
O1591       O  0.64160043  0.50645753  0.03760926    -0.90200
O1592       O  0.64504805  0.54331121  0.10212800    -0.76100
O1593       O  0.68375261  0.55102470  0.07897688    -0.85600
O1594       O  0.64544027  0.54981889  0.05261499    -0.85300
O1595       O  0.70992052  0.54104373  0.03979129    -0.72100
O1596       O  0.67565241  0.54050016  0.01503477    -0.84200
Zr1597     Zr  0.68226878  0.60948240  0.03474655     2.26400
Zr1598     Zr  0.71671159  0.56843691  0.06792228     2.06300
Zr1599     Zr  0.64420941  0.56515189  0.01666943     2.10000
Zr1600     Zr  0.65308642  0.57569619  0.08104917     1.78800
O1601       O  0.64300052  0.55148380  0.97856015    -0.93000
O1602       O  0.66740672  0.58474760  0.11760908    -0.40800
O1603       O  0.64912957  0.59220291  0.04558623    -0.77400
O1604       O  0.68563637  0.59368590  0.07054303    -0.96100
O1605       O  0.71471158  0.58640205  0.03354783    -0.89400
O1606       O  0.67663714  0.58305616  0.00587876    -0.92300
C1607       C  0.64662430  0.52225817  0.09996481     1.01500
C1608       C  0.62477514  0.51349620  0.02651418     1.14400
C1609       C  0.71583203  0.51765575  0.09239421     1.05200
O1610       O  0.73120454  0.57529508  0.10482706    -0.94400
O1611       O  0.72959883  0.60514481  0.07560035    -0.90200
O1612       O  0.71136527  0.62919770  0.05336677    -0.83300
C1613       C  0.72523017  0.62452949  0.06868323     1.11800
O1614       O  0.71843010  0.52712740  0.98269930    -0.96400
Zr1615     Zr  0.70891719  0.56003953  0.00498683     1.88900
O1616       O  0.69906299  0.61738655  0.00022388    -0.73100
O1617       O  0.75427698  0.56142951  0.05460958    -0.52300
O1618       O  0.74777250  0.54922207  0.00738074    -0.97000
O1619       O  0.70083892  0.56378382  0.96573343    -0.54200
O1620       O  0.72850496  0.59507048  0.99746992    -0.73600
C1621       C  0.71956310  0.61455326  0.99689162     0.98800
O1622       O  0.67330300  0.64656316  0.04868286    -0.62400
O1623       O  0.60486403  0.57455760  0.01881625    -0.57200
O1624       O  0.65346509  0.62613961  0.01223023    -0.93900
O1625       O  0.63251094  0.59846997  0.99858400    -0.92300
O1626       O  0.61316750  0.57750441  0.08496349    -0.92700
O1627       O  0.63916573  0.61086143  0.09601137    -0.91400
C1628       C  0.63774285  0.61873918  0.00015286     1.17600
H1629       H  0.63170799  0.54322089  0.05667475     0.33600
H1630       H  0.68811706  0.60506355  0.08161070     0.44400
H1631       H  0.67405295  0.58943163  0.99162499     0.37900
H1632       H  0.72175037  0.53009337  0.03950502     0.34400
H1633       H  0.65492771  0.58248886  0.12786130     0.26200
H1634       H  0.76035702  0.57626578  0.05276402     0.32100
H1635       H  0.75501135  0.55687207  0.99513255     0.38100
H1636       H  0.60779469  0.58246475  0.07045180     0.32500
H1637       H  0.59795362  0.56583727  0.00679027     0.31400
H1638       H  0.62743874  0.55378091  0.97410770     0.33100
H1639       H  0.70276105  0.57956889  0.96270559     0.32000
H1640       H  0.64965651  0.62180715  0.09064723     0.36000
H1641       H  0.67215029  0.65586505  0.03551518     0.28800
H1642       H  0.68427779  0.47790954  0.04715553     0.33000
H1643       H  0.72951044  0.53171647  0.97173937     0.35900
H1644       H  0.59962897  0.56791018  0.03261167     0.28500
H1645       H  0.65801505  0.64551850  0.05430252     0.41300
H1646       H  0.71796443  0.57762056  0.11432834     0.31400
H1647       H  0.67803978  0.57262098  0.12076204     0.39000
H1648       H  0.68478301  0.56152106  0.96435405     0.30900
H1649       H  0.76221219  0.55549284  0.06751510     0.30900
H1650       H  0.70438240  0.48903215  0.03594672     0.31200
Zr1651     Zr  0.51221631  0.68196104  0.06738743     2.17500
O1652       O  0.47549857  0.69519730  0.05734822    -0.51200
O1653       O  0.50256087  0.65217899  0.09045639    -0.74400
O1654       O  0.50060137  0.64662506  0.04871821    -0.81200
O1655       O  0.52565673  0.71848311  0.11911528    -0.82900
O1656       O  0.52643951  0.63711990  0.02260964    -0.78500
O1657       O  0.49930288  0.69640457  0.10450772    -0.90200
O1658       O  0.53531612  0.63332848  0.09335983    -0.76100
O1659       O  0.53926351  0.65643093  0.05372884    -0.85600
O1660       O  0.54145458  0.68127125  0.09355378    -0.85300
O1661       O  0.52361916  0.69430912  0.03118363    -0.72100
O1662       O  0.52745984  0.71839142  0.06791170    -0.84200
Zr1663     Zr  0.59443586  0.70164323  0.04752529     2.26400
Zr1664     Zr  0.55110940  0.66772144  0.01843620     2.06300
Zr1665     Zr  0.55677499  0.71705612  0.09447668     2.10000
Zr1666     Zr  0.56688850  0.65390229  0.08040952     1.78800
O1667       O  0.54584368  0.75409925  0.10717226    -0.93000
O1668       O  0.57174312  0.61632956  0.06581861    -0.40800
O1669       O  0.58354246  0.68948661  0.08316509    -0.77400
O1670       O  0.58015968  0.66517663  0.04526073    -0.96100
O1671       O  0.56695755  0.70310918  0.01955084    -0.89400
O1672       O  0.56826875  0.72905698  0.05931443    -0.92300
C1673       C  0.51436869  0.63569728  0.09643871     1.01500
C1674       C  0.50706523  0.70903271  0.12010508     1.14400
C1675       C  0.50923439  0.63288511  0.03407490     1.05200
O1676       O  0.55192046  0.63846016  0.99007926    -0.94400
O1677       O  0.58725337  0.66052019  0.00151782    -0.90200
O1678       O  0.61190581  0.68483803  0.01523712    -0.83300
C1679       C  0.60667200  0.66854246  0.00274106     1.11800
O1680       O  0.50321530  0.74369220  0.02468408    -0.96400
Zr1681     Zr  0.54059013  0.73016983  0.03219569     1.88900
O1682       O  0.60332695  0.73139355  0.02493265    -0.73100
O1683       O  0.53318111  0.68403437  0.98662130    -0.52300
O1684       O  0.53359052  0.73287834  0.99268920    -0.97000
O1685       O  0.53377014  0.76714975  0.04772036    -0.54200
O1686       O  0.57212985  0.75109629  0.01699942    -0.73600
C1687       C  0.59329347  0.74756087  0.01607987     0.98800
O1688       O  0.63134023  0.68839852  0.05558216    -0.62400
O1689       O  0.57302097  0.70625965  0.12938585    -0.57200
O1690       O  0.61250483  0.73025224  0.06948829    -0.93900
O1691       O  0.58965943  0.73890190  0.09859025    -0.92300
O1692       O  0.57476494  0.65039302  0.11952222    -0.92700
O1693       O  0.60346269  0.63761005  0.08494307    -0.91400
C1694       C  0.60711280  0.74166230  0.08695847     1.17600
H1695       H  0.53651091  0.67719146  0.10805194     0.33600
H1696       H  0.59156116  0.65450877  0.04085468     0.44400
H1697       H  0.57425418  0.74360314  0.06026366     0.37900
H1698       H  0.51101582  0.69448651  0.02150137     0.34400
H1699       H  0.56828798  0.60681202  0.07837223     0.26200
H1700       H  0.54399384  0.68185379  0.97438780     0.32100
H1701       H  0.54808945  0.72992294  0.98545007     0.38100
H1702       H  0.56016601  0.64885952  0.12661515     0.32500
H1703       H  0.57076101  0.71934217  0.13928672     0.31400
H1704       H  0.55193313  0.75552027  0.12228455     0.33100
H1705       H  0.54854114  0.77304084  0.05085430     0.32000
H1706       H  0.61335412  0.64711427  0.07652522     0.36000
H1707       H  0.63218884  0.67323153  0.04929171     0.28800
H1708       H  0.47072450  0.70500442  0.06987706     0.33000
H1709       H  0.50494575  0.75764048  0.01678234     0.35900
H1710       H  0.56286835  0.69526175  0.13525444     0.28500
H1711       H  0.64097336  0.69704410  0.04603073     0.41300
H1712       H  0.56041670  0.62610371  0.99659888     0.31400
H1713       H  0.55935127  0.61430046  0.05542754     0.39000
H1714       H  0.52723202  0.76479387  0.06248429     0.30900
H1715       H  0.52109090  0.67395073  0.98286583     0.30900
H1716       H  0.46613047  0.68214489  0.05849750     0.31200
Zr1717     Zr  0.67094607  0.67891536  0.21141514     2.17500
O1718       O  0.68968133  0.68923994  0.24546914    -0.51200
O1719       O  0.64470654  0.65385537  0.22546153    -0.74400
O1720       O  0.63901607  0.69487027  0.23301635    -0.81200
O1721       O  0.70557745  0.63026547  0.18737246    -0.82900
O1722       O  0.62051355  0.71722372  0.20939720    -0.78500
O1723       O  0.69050679  0.64370385  0.21973949    -0.90200
O1724       O  0.61945033  0.65161670  0.19782552    -0.76100
O1725       O  0.63961716  0.68919455  0.19063153    -0.85600
O1726       O  0.66764438  0.65332366  0.18109036    -0.85300
O1727       O  0.67625751  0.71632271  0.19965970    -0.72100
O1728       O  0.70410787  0.68243639  0.18958614    -0.84200
Zr1729     Zr  0.67179597  0.70220349  0.12817612     2.26400
Zr1730     Zr  0.64383799  0.72564630  0.17861583     2.06300
Zr1731     Zr  0.70013494  0.65682507  0.15898669     2.10000
Zr1732     Zr  0.63490553  0.66285003  0.16249127     1.78800
O1733       O  0.73975838  0.65113123  0.16327866    -0.93000
O1734       O  0.59656784  0.67505156  0.15940100    -0.40800
O1735       O  0.66696256  0.66529999  0.13956570    -0.77400
O1736       O  0.63852393  0.69926810  0.14901667    -0.96100
O1737       O  0.67609827  0.72903438  0.15694321    -0.89400
O1738       O  0.70504642  0.69316635  0.14718305    -0.92300
C1739       C  0.62603752  0.64831703  0.21773161     1.01500
C1740       C  0.70056856  0.62851518  0.20783969     1.14400
C1741       C  0.62184430  0.70642473  0.22727381     1.05200
O1742       O  0.60638642  0.74067924  0.17594930    -0.94400
O1743       O  0.63722944  0.74935563  0.14706578    -0.90200
O1744       O  0.64517962  0.72908502  0.11588231    -0.83300
C1745       C  0.63738538  0.74634568  0.12596213     1.11800
O1746       O  0.72691673  0.72954483  0.21102416    -0.96400
Zr1747     Zr  0.70872978  0.71940612  0.17652536     1.88900
O1748       O  0.69033945  0.73631869  0.12675376    -0.73100
O1749       O  0.65169897  0.75873685  0.20039992    -0.52300
O1750       O  0.70643702  0.75922559  0.18234153    -0.97000
O1751       O  0.74778704  0.70895062  0.17733524    -0.54200
O1752       O  0.72351116  0.73251639  0.14112947    -0.73600
C1753       C  0.71108557  0.73651312  0.12454954     0.98800
O1754       O  0.66115810  0.69293962  0.09063665    -0.62400
O1755       O  0.69576046  0.62066738  0.14148597    -0.57200
O1756       O  0.69803537  0.68522897  0.10255574    -0.93900
O1757       O  0.71412400  0.65680908  0.12092200    -0.92300
O1758       O  0.63305693  0.62297202  0.15865694    -0.92700
O1759       O  0.62107962  0.64911083  0.12739417    -0.91400
C1760       C  0.71129810  0.66856097  0.10362732     1.17600
H1761       H  0.66565977  0.63845631  0.18587378     0.33600
H1762       H  0.62564083  0.70313284  0.14043795     0.44400
H1763       H  0.71814379  0.69357519  0.13808529     0.37900
H1764       H  0.67734034  0.72598830  0.21250113     0.34400
H1765       H  0.58803506  0.66166584  0.16194028     0.26200
H1766       H  0.64529178  0.77094380  0.19177506     0.32100
H1767       H  0.69600334  0.76156916  0.19487303     0.38100
H1768       H  0.61972408  0.61920484  0.16715317     0.32500
H1769       H  0.70996791  0.61272601  0.14391535     0.31400
H1770       H  0.74322322  0.63726399  0.15488603     0.33100
H1771       H  0.75545888  0.72144564  0.17075557     0.32000
H1772       H  0.62141539  0.66206861  0.11779359     0.36000
H1773       H  0.64623858  0.68707214  0.09284386     0.28800
H1774       H  0.68194213  0.68115985  0.25710001     0.33000
H1775       H  0.73737716  0.74115543  0.20720150     0.35900
H1776       H  0.68505121  0.61322502  0.15101214     0.28500
H1777       H  0.65874947  0.70708802  0.08314872     0.41300
H1778       H  0.59795086  0.72853598  0.16914913     0.31400
H1779       H  0.59376350  0.68446596  0.17275433     0.39000
H1780       H  0.74948983  0.69682196  0.16618569     0.30900
H1781       H  0.64199543  0.75798750  0.21356963     0.30900
H1782       H  0.68526730  0.70486866  0.24825480     0.31200
Zr1783     Zr  0.79706645  0.47623977  0.40935842     2.17500
O1784       O  0.78101455  0.51135960  0.42229578    -0.51200
O1785       O  0.82325778  0.48902174  0.38286231    -0.74400
O1786       O  0.83129966  0.49354795  0.42520020    -0.81200
O1787       O  0.75492589  0.45814718  0.36454382    -0.82900
O1788       O  0.84806833  0.46875756  0.44770565    -0.78500
O1789       O  0.77693762  0.48649545  0.37477767    -0.90200
O1790       O  0.84967165  0.46196412  0.38087657    -0.76100
O1791       O  0.82790373  0.45316358  0.41619442    -0.85600
O1792       O  0.79760274  0.44780999  0.38149604    -0.85300
O1793       O  0.79222737  0.46180594  0.44624139    -0.72100
O1794       O  0.76351005  0.45601223  0.41498523    -0.84200
Zr1795     Zr  0.79515222  0.39165546  0.42720112     2.26400
Zr1796     Zr  0.82434789  0.43873092  0.45210849     2.06300
Zr1797     Zr  0.76482354  0.42743183  0.38687788     2.10000
Zr1798     Zr  0.83046236  0.42722361  0.38704272     1.78800
O1799       O  0.72495460  0.43304126  0.38566644    -0.93000
O1800       O  0.86873283  0.41712465  0.39320478    -0.40800
O1801       O  0.79790721  0.40582366  0.39082622    -0.77400
O1802       O  0.82853670  0.41119476  0.42323400    -0.96100
O1803       O  0.79227572  0.41821643  0.45624921    -0.89400
O1804       O  0.76197068  0.41269797  0.42244361    -0.92300
C1805       C  0.84310083  0.48220999  0.37924921     1.01500
C1806       C  0.76298476  0.47710309  0.36151787     1.14400
C1807       C  0.84776424  0.48668489  0.43718985     1.05200
O1808       O  0.86187844  0.42642976  0.46040405    -0.94400
O1809       O  0.82253798  0.40935978  0.47850048    -0.90200
O1810       O  0.81571474  0.37805976  0.45878934    -0.83300
C1811       C  0.82053278  0.38843254  0.47681540     1.11800
O1812       O  0.74128116  0.47301668  0.46519239    -0.96400
Zr1813     Zr  0.75984288  0.43949788  0.45095170     1.88900
O1814       O  0.77103190  0.37703859  0.45348112    -0.73100
O1815       O  0.82228055  0.46042096  0.48647307    -0.52300
O1816       O  0.76481816  0.44411219  0.49073543    -0.97000
O1817       O  0.72031352  0.44093208  0.44362876    -0.54200
O1818       O  0.74593309  0.40346339  0.46445642    -0.73600
C1819       C  0.75317302  0.38316370  0.46324256     0.98800
O1820       O  0.81311149  0.35886539  0.41161104    -0.62400
O1821       O  0.76793867  0.41284989  0.34910414    -0.57200
O1822       O  0.76808488  0.36900789  0.40954041    -0.93900
O1823       O  0.74925376  0.39081233  0.38562127    -0.92300
O1824       O  0.83098915  0.43288172  0.34732542    -0.92700
O1825       O  0.83857990  0.39370405  0.36549411    -0.91400
C1826       C  0.75277176  0.37251097  0.39547767     1.17600
H1827       H  0.79850502  0.45327394  0.36671003     0.33600
H1828       H  0.84115395  0.40164659  0.42582344     0.44400
H1829       H  0.74877151  0.40426674  0.42366497     0.37900
H1830       H  0.79179640  0.47390009  0.45694425     0.34400
H1831       H  0.87506831  0.41716451  0.37811455     0.26200
H1832       H  0.81262727  0.45197688  0.49624464     0.32100
H1833       H  0.77248666  0.43041015  0.49533725     0.38100
H1834       H  0.84617651  0.43757166  0.34409332     0.32500
H1835       H  0.75368184  0.41683859  0.34216776     0.31400
H1836       H  0.72055394  0.42643010  0.37128394     0.33100
H1837       H  0.71364955  0.43151253  0.45487275     0.32000
H1838       H  0.82448209  0.39009623  0.35822995     0.36000
H1839       H  0.81523772  0.36214263  0.39580860     0.28800
H1840       H  0.78946077  0.51510866  0.43577899     0.33000
H1841       H  0.73118947  0.46823248  0.47698448     0.35900
H1842       H  0.77882263  0.42227351  0.34189029     0.28500
H1843       H  0.82806699  0.35917542  0.41803372     0.41300
H1844       H  0.86990623  0.42702766  0.44613314     0.31400
H1845       H  0.87492602  0.43018839  0.40080097     0.39000
H1846       H  0.71856200  0.43261785  0.42951113     0.30900
H1847       H  0.83716601  0.45875418  0.49297596     0.30900
H1848       H  0.76620455  0.50764321  0.42787107     0.31200
Zr1849     Zr  0.79893673  0.30385230  0.25968299     2.17500
O1850       O  0.78611368  0.28947859  0.22423362    -0.51200
O1851       O  0.82868060  0.32663779  0.24667904    -0.74400
O1852       O  0.78455569  0.33800468  0.24241579    -0.81200
O1853       O  0.84153141  0.25870406  0.27319906    -0.82900
O1854       O  0.76675654  0.35731229  0.27005260    -0.78500
O1855       O  0.83123036  0.28184826  0.24589275    -0.90200
O1856       O  0.84213821  0.34334675  0.27770572    -0.76100
O1857       O  0.79511239  0.33460946  0.28435364    -0.85600
O1858       O  0.82629167  0.29972650  0.28756903    -0.85300
O1859       O  0.76174677  0.30167322  0.27503245    -0.72100
O1860       O  0.79006283  0.27003235  0.27829584    -0.84200
Zr1861     Zr  0.78177952  0.29777228  0.34524145     2.26400
Zr1862     Zr  0.75895921  0.33309360  0.29959730     2.06300
Zr1863     Zr  0.81849553  0.26596803  0.30520235     2.10000
Zr1864     Zr  0.82329921  0.33143842  0.31073476     1.78800
O1865       O  0.80979814  0.22803575  0.29563771    -0.93000
O1866       O  0.81781925  0.37132126  0.31226842    -0.40800
O1867       O  0.81778881  0.29771628  0.32946769    -0.77400
O1868       O  0.78732075  0.33158739  0.32704188    -0.96100
O1869       O  0.75214132  0.30112555  0.32000591    -0.89400
O1870       O  0.78326674  0.26551362  0.32242631    -0.92300
C1871       C  0.84194763  0.33958162  0.25673552     1.01500
C1872       C  0.84433612  0.26723339  0.25427396     1.14400
C1873       C  0.77520242  0.35574868  0.25065699     1.05200
O1874       O  0.74707685  0.37128380  0.30625103    -0.94400
O1875       O  0.74025809  0.34385799  0.33348246    -0.90200
O1876       O  0.75404421  0.32263480  0.36086374    -0.83300
C1877       C  0.74154184  0.33819909  0.35364801     1.11800
O1878       O  0.74178837  0.25036242  0.26339770    -0.96400
Zr1879     Zr  0.75419862  0.26944945  0.29684634     1.88900
O1880       O  0.75372100  0.27671658  0.36086041    -0.73100
O1881       O  0.72295628  0.32938301  0.28240590    -0.52300
O1882       O  0.71623251  0.28089864  0.28930405    -0.97000
O1883       O  0.75441788  0.22927148  0.29745309    -0.54200
O1884       O  0.73442723  0.26147279  0.33250641    -0.73600
C1885       C  0.73748463  0.26596990  0.35337824     0.98800
O1886       O  0.79682806  0.31403731  0.37888041    -0.62400
O1887       O  0.85622262  0.25667290  0.31607662    -0.57200
O1888       O  0.80158785  0.26994238  0.36564780    -0.93900
O1889       O  0.82410218  0.25078924  0.34145927    -0.92300
O1890       O  0.86247445  0.32509669  0.31734454    -0.92700
O1891       O  0.83637343  0.34595527  0.34593859    -0.91400
C1892       C  0.81636250  0.25501682  0.36090402     1.17600
H1893       H  0.84118792  0.29959778  0.28190320     0.33600
H1894       H  0.78564866  0.34383936  0.33741091     0.44400
H1895       H  0.78145814  0.25240829  0.33093311     0.37900
H1896       H  0.75115174  0.30286485  0.26322185     0.34400
H1897       H  0.81545123  0.37550936  0.29672982     0.26200
H1898       H  0.71232275  0.33474845  0.29391993     0.32100
H1899       H  0.71080558  0.28796046  0.30329028     0.38100
H1900       H  0.86326370  0.31107080  0.32534408     0.32500
H1901       H  0.86021816  0.24280836  0.30790655     0.31400
H1902       H  0.82016748  0.21907282  0.30449619     0.33100
H1903       H  0.74013910  0.22562904  0.30433016     0.32000
H1904       H  0.82284451  0.34864264  0.35492460     0.36000
H1905       H  0.81296731  0.31381104  0.37618568     0.28800
H1906       H  0.76981998  0.28989328  0.22556737     0.33000
H1907       H  0.72714652  0.24449186  0.26706878     0.35900
H1908       H  0.86545189  0.26800386  0.30936889     0.28500
H1909       H  0.79246849  0.32983608  0.37854006     0.41300
H1910       H  0.76068671  0.37898512  0.31051175     0.31400
H1911       H  0.80327207  0.37398469  0.31948009     0.39000
H1912       H  0.76559118  0.22502254  0.30851288     0.30900
H1913       H  0.72246268  0.34088375  0.27108450     0.30900
H1914       H  0.79022427  0.27360072  0.22425242     0.31200
Zr1915     Zr  0.85715704  0.30870994  0.44205275     2.17500
O1916       O  0.82010287  0.32067818  0.43205508    -0.51200
O1917       O  0.84235257  0.28661821  0.46992996    -0.74400
O1918       O  0.83756724  0.28000413  0.42268973    -0.81200
O1919       O  0.86870598  0.35214846  0.48578713    -0.82900
O1920       O  0.86233367  0.25946946  0.40215816    -0.78500
O1921       O  0.84047509  0.33486367  0.46850638    -0.90200
O1922       O  0.86964692  0.26454297  0.48317255    -0.76100
O1923       O  0.87972356  0.27629393  0.43893773    -0.85600
O1924       O  0.88247429  0.31023113  0.47177367    -0.85300
O1925       O  0.87306414  0.30913910  0.40566961    -0.72100
O1926       O  0.87590067  0.34232061  0.43637100    -0.84200
Zr1927     Zr  0.94342320  0.31385043  0.42632453     2.26400
Zr1928     Zr  0.89756560  0.27744709  0.40385139     2.06300
Zr1929     Zr  0.90246958  0.34281166  0.46576474     2.10000
Zr1930     Zr  0.90526718  0.27825984  0.46811426     1.78800
O1931       O  0.89622769  0.38240800  0.47072131    -0.93000
O1932       O  0.90722015  0.23841034  0.46241051    -0.40800
O1933       O  0.92669172  0.31108630  0.46260417    -0.77400
O1934       O  0.92447590  0.27969947  0.43279019    -0.96100
O1935       O  0.91665805  0.31048235  0.39803277    -0.89400
O1936       O  0.91837910  0.34446571  0.42975619    -0.92300
C1937       C  0.84916047  0.27097445  0.48192079     1.01500
C1938       C  0.84827814  0.34775945  0.48344939     1.14400
C1939       C  0.84273462  0.26403022  0.40932809     1.05200
O1940       O  0.91125970  0.23955811  0.40614983    -0.94400
O1941       O  0.92730409  0.27617075  0.37706903    -0.90200
O1942       O  0.95677303  0.29326049  0.39236127    -0.83300
C1943       C  0.94734807  0.28241126  0.37642428     1.11800
O1944       O  0.85930357  0.35833789  0.38721279    -0.96400
Zr1945     Zr  0.89337647  0.34194384  0.40053403     1.88900
O1946       O  0.95806456  0.33777486  0.39916191    -0.73100
O1947       O  0.88572794  0.27149927  0.36566936    -0.52300
O1948       O  0.88617900  0.33576297  0.36139166    -0.97000
O1949       O  0.89582755  0.38180656  0.40531125    -0.54200
O1950       O  0.92757655  0.35100561  0.38151329    -0.73600
C1951       C  0.94857257  0.34896004  0.38418935     0.98800
O1952       O  0.97814984  0.29862753  0.43989480    -0.62400
O1953       O  0.91646685  0.33864974  0.50313752    -0.57200
O1954       O  0.96023830  0.34796541  0.44237687    -0.93900
O1955       O  0.93558766  0.36380440  0.46684162    -0.92300
O1956       O  0.91003180  0.28711158  0.50724804    -0.92700
O1957       O  0.93763625  0.26089814  0.48456760    -0.91400
C1958       C  0.95379129  0.36373586  0.45597844     1.17600
H1959       H  0.87523681  0.31060066  0.48605406     0.33600
H1960       H  0.93492887  0.26747706  0.43140466     0.44400
H1961       H  0.92519342  0.35837104  0.42739011     0.37900
H1962       H  0.86168785  0.30794089  0.39460236     0.34400
H1963       H  0.90294686  0.23239476  0.47684761     0.26200
H1964       H  0.88541789  0.25530734  0.36341873     0.32100
H1965       H  0.89163537  0.32051107  0.35822174     0.38100
H1966       H  0.89618833  0.28262866  0.51443393     0.32500
H1967       H  0.91747720  0.35390225  0.50913464     0.31400
H1968       H  0.89694112  0.38525051  0.48688910     0.33100
H1969       H  0.91162287  0.38521065  0.40360479     0.32000
H1970       H  0.94988540  0.27072631  0.48098616     0.36000
H1971       H  0.98935261  0.30916050  0.43514322     0.28800
H1972       H  0.81012071  0.31079100  0.43991140     0.33000
H1973       H  0.85678426  0.37155881  0.39683686     0.35900
H1974       H  0.90409052  0.33238021  0.51145894     0.28500
H1975       H  0.97719024  0.30082965  0.45614560     0.41300
H1976       H  0.90301580  0.23138975  0.39463633     0.31400
H1977       H  0.89465200  0.23508048  0.45259424     0.39000
H1978       H  0.89252067  0.38484202  0.42115576     0.30900
H1979       H  0.87008381  0.27652559  0.36506321     0.30900
H1980       H  0.81868346  0.31643173  0.41626229     0.31200
Zr1981     Zr  0.91652301  0.42326154  0.25611622     2.17500
O1982       O  0.93148008  0.43257468  0.22017165    -0.51200
O1983       O  0.88742716  0.39846052  0.24403452    -0.74400
O1984       O  0.93540536  0.38890284  0.24343163    -0.81200
O1985       O  0.87206705  0.46767886  0.26283215    -0.82900
O1986       O  0.96500880  0.38410570  0.26578544    -0.78500
O1987       O  0.88772060  0.44414025  0.23704892    -0.90200
O1988       O  0.87563503  0.38208641  0.27522253    -0.76100
O1989       O  0.92289988  0.39577418  0.28270084    -0.85600
O1990       O  0.88678470  0.42704853  0.28191320    -0.85300
O1991       O  0.95196843  0.43103756  0.27258837    -0.72100
O1992       O  0.91932120  0.45972543  0.27282296    -0.84200
Zr1993     Zr  0.92823081  0.44072481  0.34175197     2.26400
Zr1994     Zr  0.95734559  0.40365042  0.29992423     2.06300
Zr1995     Zr  0.88919953  0.46278070  0.29860137     2.10000
Zr1996     Zr  0.89251671  0.39851434  0.30734699     1.78800
O1997       O  0.88781371  0.50220510  0.29201373    -0.93000
O1998       O  0.90133431  0.35911768  0.30754230    -0.40800
O1999       O  0.89327373  0.43425407  0.32493610    -0.77400
O2000       O  0.92661524  0.40470726  0.32506516    -0.96100
O2001       O  0.95948497  0.43874676  0.31767217    -0.89400
O2002       O  0.92359377  0.46956634  0.31605343    -0.92300
C2003       C  0.87534454  0.38488697  0.25433165     1.01500
C2004       C  0.87351227  0.45917040  0.24319602     1.14400
C2005       C  0.95302393  0.37839969  0.24941530     1.05200
O2006       O  0.96974991  0.36541743  0.30288892    -0.94400
O2007       O  0.96812564  0.39173919  0.33627589    -0.90200
O2008       O  0.95189861  0.41524768  0.36171020    -0.83300
C2009       C  0.96327343  0.39786985  0.35620311     1.11800
O2010       O  0.96439725  0.48301046  0.25639075    -0.96400
Zr2011     Zr  0.95396961  0.46647829  0.29115403     1.88900
O2012       O  0.95572669  0.46544368  0.35425353    -0.73100
O2013       O  0.99577847  0.41389491  0.29654241    -0.52300
O2014       O  0.99279281  0.45914635  0.28225055    -0.97000
O2015       O  0.94817578  0.50631895  0.29002996    -0.54200
O2016       O  0.97196065  0.48108539  0.32467224    -0.73600
C2017       C  0.96948573  0.47828467  0.34556495     0.98800
O2018       O  0.91359645  0.43319390  0.37825334    -0.62400
O2019       O  0.84959567  0.46153834  0.30521539    -0.57200
O2020       O  0.90491281  0.46905957  0.35935455    -0.93900
O2021       O  0.87917154  0.47964849  0.33420592    -0.92300
O2022       O  0.85327046  0.40196524  0.31540317    -0.92700
O2023       O  0.88228083  0.38296807  0.34256217    -0.91400
C2024       C  0.88795749  0.48042547  0.35345132     1.17600
H2025       H  0.87258173  0.42568118  0.27491566     0.33600
H2026       H  0.92764822  0.39328282  0.33579731     0.44400
H2027       H  0.92340959  0.48385534  0.32336515     0.37900
H2028       H  0.96346455  0.42959155  0.26146032     0.34400
H2029       H  0.90974502  0.35596547  0.29369676     0.26200
H2030       H  0.00368232  0.40475748  0.30743285     0.32100
H2031       H  0.00105555  0.46511388  0.29503270     0.38100
H2032       H  0.84640916  0.40616232  0.30125727     0.32500
H2033       H  0.84354126  0.47531277  0.29896119     0.31400
H2034       H  0.87218851  0.50560236  0.28845794     0.33100
H2035       H  0.94787801  0.51156799  0.30564861     0.32000
H2036       H  0.89228961  0.38971209  0.35352366     0.36000
H2037       H  0.91474755  0.41701325  0.37962496     0.28800
H2038       H  0.92816265  0.41978950  0.21038743     0.33000
H2039       H  0.97700781  0.49253284  0.25991043     0.35900
H2040       H  0.84438723  0.44969076  0.29516492     0.28500
H2041       H  0.92441895  0.43908224  0.38889002     0.41300
H2042       H  0.95603827  0.35689022  0.30227095     0.31400
H2043       H  0.91237239  0.35731271  0.31940455     0.39000
H2044       H  0.93277908  0.50835826  0.28496871     0.30900
H2045       H  0.00063257  0.40768073  0.28198216     0.30900
H2046       H  0.94769415  0.43178703  0.22202815     0.31200
Zr2047     Zr  0.71413131  0.50937588  0.19617368     2.17500
O2048       O  0.69042491  0.51573309  0.16426519    -0.51200
O2049       O  0.70837428  0.54972757  0.19819723    -0.74400
O2050       O  0.67572867  0.50239972  0.20359472    -0.81200
O2051       O  0.76282560  0.50331483  0.15590382    -0.82900
O2052       O  0.67079741  0.49241733  0.23925187    -0.78500
O2053       O  0.72540276  0.50553772  0.15789367    -0.90200
O2054       O  0.72679553  0.56529001  0.22684114    -0.76100
O2055       O  0.71437167  0.52137228  0.23380699    -0.85600
O2056       O  0.74956041  0.52455351  0.20136911    -0.85300
O2057       O  0.70810391  0.47647587  0.21674691    -0.72100
O2058       O  0.74017745  0.47995374  0.18725928    -0.84200
Zr2059     Zr  0.76992738  0.47471285  0.25299534     2.26400
Zr2060     Zr  0.70846110  0.48885959  0.25480883     2.06300
Zr2061     Zr  0.77569424  0.49502363  0.19345308     2.10000
Zr2062     Zr  0.75029876  0.53578343  0.23931799     1.78800
O2063       O  0.79371577  0.46919183  0.16734805    -0.93000
O2064       O  0.73510111  0.55399267  0.27257116    -0.40800
O2065       O  0.77691333  0.50675503  0.23168633    -0.77400
O2066       O  0.74399642  0.50450423  0.26101000    -0.96100
O2067       O  0.73470716  0.45932925  0.24695475    -0.89400
O2068       O  0.77024951  0.46287945  0.21507184    -0.92300
C2069       C  0.71362930  0.56638642  0.21051116     1.01500
C2070       C  0.74359963  0.50530287  0.14703788     1.14400
C2071       C  0.66354264  0.49680237  0.21975262     1.05200
O2072       O  0.68816568  0.51579882  0.27799183    -0.94400
O2073       O  0.72138852  0.48272419  0.29300923    -0.90200
O2074       O  0.75881093  0.47815575  0.29192334    -0.83300
C2075       C  0.74035526  0.48029414  0.30246533     1.11800
O2076       O  0.70729970  0.43783209  0.18142231    -0.96400
Zr2077     Zr  0.73485205  0.44794888  0.20887452     1.88900
O2078       O  0.77469982  0.43450459  0.25283161    -0.73100
O2079       O  0.68862270  0.45765870  0.26873032    -0.52300
O2080       O  0.70843389  0.42311269  0.22481760    -0.97000
O2081       O  0.75140540  0.42800604  0.17723155    -0.54200
O2082       O  0.75638282  0.41823409  0.22450406    -0.73600
C2083       C  0.76904819  0.41750959  0.24130705     0.98800
O2084       O  0.79566489  0.46829242  0.28321374    -0.62400
O2085       O  0.79878499  0.52562294  0.18358395    -0.57200
O2086       O  0.80790266  0.48236144  0.24386727    -0.93900
O2087       O  0.81286752  0.48707812  0.20702052    -0.92300
O2088       O  0.77529476  0.56143971  0.22250361    -0.92700
O2089       O  0.77878580  0.54745016  0.26497011    -0.91400
C2090       C  0.82007530  0.48453595  0.22674204     1.17600
H2091       H  0.75168316  0.53679053  0.19176023     0.33600
H2092       H  0.74519043  0.51066213  0.27576273     0.44400
H2093       H  0.78190778  0.45209514  0.21209213     0.37900
H2094       H  0.69454676  0.46931243  0.21308208     0.34400
H2095       H  0.73767899  0.56986473  0.27062204     0.26200
H2096       H  0.67641295  0.46437080  0.27773070     0.32100
H2097       H  0.71318507  0.40820859  0.21943249     0.38100
H2098       H  0.77086976  0.57605836  0.22889351     0.32500
H2099       H  0.80886001  0.51943987  0.17195439     0.31400
H2100       H  0.80370878  0.47831259  0.15860551     0.33100
H2101       H  0.75006684  0.41222902  0.18064355     0.32000
H2102       H  0.78370810  0.53375192  0.27221235     0.36000
H2103       H  0.80673007  0.45733382  0.27740169     0.28800
H2104       H  0.67936081  0.52713728  0.16909624     0.33000
H2105       H  0.70806038  0.42155515  0.18007765     0.35900
H2106       H  0.78890350  0.53596152  0.17570584     0.28500
H2107       H  0.80381645  0.48211443  0.28535508     0.41300
H2108       H  0.68206533  0.52666007  0.26756709     0.31400
H2109       H  0.71892278  0.55259030  0.27118448     0.39000
H2110       H  0.76739804  0.43074841  0.17830023     0.30900
H2111       H  0.68131467  0.45119191  0.25558462     0.30900
H2112       H  0.68193749  0.50213918  0.16193261     0.31200
Zr2113     Zr  0.69928359  0.72896440  0.00526270     2.17500
O2114       O  0.66958296  0.70435863  0.01441467    -0.51200
O2115       O  0.70072388  0.73116145  0.04596128    -0.74400
O2116       O  0.71121417  0.69022582  0.00491412    -0.81200
O2117       O  0.65620392  0.77579152  0.99075062    -0.82900
O2118       O  0.74563874  0.68364637  0.99092955    -0.78500
O2119       O  0.66072002  0.73951188  0.99855225    -0.90200
O2120       O  0.72952366  0.75134730  0.05792142    -0.76100
O2121       O  0.73718946  0.73105780  0.01439785    -0.85600
O2122       O  0.70401594  0.76616236  0.01712222    -0.85300
O2123       O  0.71862961  0.71845904  0.97157150    -0.72100
O2124       O  0.68941491  0.75081009  0.97420208    -0.84200
Zr2125     Zr  0.75309924  0.78042403  0.96198877     2.26400
Zr2126     Zr  0.75688526  0.72077864  0.98106263     2.06300
Zr2127     Zr  0.69433828  0.78811719  0.98598462     2.10000
Zr2128     Zr  0.74241423  0.76855127  0.02535944     1.78800
O2129       O  0.67388499  0.80699717  0.95720665    -0.93000
O2130       O  0.77479141  0.75544643  0.04528614    -0.40800
O2131       O  0.73259050  0.79017403  0.99475781    -0.77400
O2132       O  0.76334126  0.75827444  0.99300636    -0.96100
O2133       O  0.74783673  0.74334212  0.95005053    -0.89400
O2134       O  0.71488917  0.77896305  0.95285338    -0.92300
C2135       C  0.71312675  0.73912163  0.06129905     1.01500
C2136       C  0.64858866  0.75656638  0.99427539     1.14400
C2137       C  0.72752990  0.67722879  0.99953286     1.05200
O2138       O  0.78350970  0.70319497  0.00537359    -0.94400
O2139       O  0.79454393  0.73019501  0.97208938    -0.90200
O2140       O  0.79087697  0.76483209  0.95883708    -0.83300
C2141       C  0.80239928  0.74750165  0.96360117     1.11800
O2142       O  0.68483473  0.71146712  0.93355244    -0.96400
Zr2143     Zr  0.70962885  0.74175605  0.94100107     1.88900
O2144       O  0.74755267  0.78427071  0.92203977    -0.73100
O2145       O  0.76502190  0.69845253  0.94794453    -0.52300
O2146       O  0.72555281  0.71436374  0.91506398    -0.97000
O2147       O  0.67517859  0.75537317  0.92512876    -0.54200
O2148       O  0.72096662  0.76202513  0.90860555    -0.73600
C2149       C  0.73561300  0.77669861  0.90617507     0.98800
O2150       O  0.77999050  0.80770523  0.95190492    -0.62400
O2151       O  0.67735399  0.81053527  0.01568971    -0.57200
O2152       O  0.74711614  0.81890916  0.97423728    -0.93900
O2153       O  0.71091466  0.82430880  0.98373500    -0.92300
O2154       O  0.72680553  0.79965470  0.04692941    -0.92700
O2155       O  0.76894999  0.79738104  0.03220976    -0.91400
C2156       C  0.73046694  0.83131468  0.98020756     1.17600
H2157       H  0.69473678  0.77011383  0.02969550     0.33600
H2158       H  0.77848524  0.76035252  0.99725794     0.44400
H2159       H  0.71086340  0.78937484  0.94166645     0.37900
H2160       H  0.71519778  0.70367166  0.96682132     0.34400
H2161       H  0.77320267  0.76211583  0.06033177     0.26200
H2162       H  0.77690465  0.68805446  0.95242975     0.32100
H2163       H  0.74024321  0.71995839  0.91116334     0.38100
H2164       H  0.71585763  0.79329913  0.05700266     0.32500
H2165       H  0.68991771  0.81669106  0.02397643     0.31400
H2166       H  0.66656304  0.81978197  0.96489786     0.33100
H2167       H  0.67688084  0.77150066  0.92428827     0.32000
H2168       H  0.76996911  0.80512901  0.01804134     0.36000
H2169       H  0.79173278  0.80646715  0.96314355     0.28800
H2170       H  0.67536442  0.69532976  0.02659065     0.33000
H2171       H  0.68136874  0.71215528  0.91760506     0.35900
H2172       H  0.67058052  0.82333119  0.00822575     0.33300
H2173       H  0.78691892  0.80209375  0.93794432     0.41300
H2174       H  0.77828094  0.70722674  0.02050091     0.31400
H2175       H  0.77236736  0.73956172  0.04731741     0.39000
H2176       H  0.66393625  0.75361149  0.93685290     0.30900
H2177       H  0.75193435  0.68918515  0.94592396     0.30900
H2178       H  0.66847994  0.69398727  0.00160214     0.31200
Zr2179     Zr  0.15830733  0.17372802  0.21173059     2.17500
O2180       O  0.17400328  0.18902843  0.24549560    -0.51200
O2181       O  0.13459019  0.14727289  0.22814350    -0.74400
O2182       O  0.12591867  0.19404337  0.22782692    -0.81200
O2183       O  0.19343969  0.12238191  0.19755704    -0.82900
O2184       O  0.12109379  0.22508419  0.20822304    -0.78500
O2185       O  0.17793166  0.14133903  0.22695102    -0.90200
O2186       O  0.11218141  0.13674545  0.19994905    -0.76100
O2187       O  0.12693898  0.18118804  0.18938308    -0.85600
O2188       O  0.15617726  0.14389697  0.18555137    -0.85300
O2189       O  0.16525190  0.20843670  0.19441557    -0.72100
O2190       O  0.19228564  0.17406809  0.19063268    -0.84200
Zr2191     Zr  0.16347406  0.18380122  0.12533362     2.26400
Zr2192     Zr  0.13373560  0.21506227  0.17147165     2.06300
Zr2193     Zr  0.18953532  0.14380330  0.16461978     2.10000
Zr2194     Zr  0.12439479  0.15068232  0.16456923     1.78800
O2195       O  0.22863275  0.14086173  0.17333742    -0.93000
O2196       O  0.08507936  0.16012644  0.16633548    -0.40800
O2197       O  0.15746070  0.14928200  0.14236935    -0.77400
O2198       O  0.12978599  0.18441685  0.14617947    -0.96100
O2199       O  0.16646153  0.21501982  0.14956070    -0.89400
O2200       O  0.19542227  0.17769630  0.14711770    -0.92300
C2201       C  0.11846093  0.13651231  0.22021591     1.01500
C2202       C  0.18795025  0.12427939  0.21805116     1.14400
C2203       C  0.11589684  0.21255743  0.22400290     1.05200
O2204       O  0.09448828  0.22476572  0.17237947    -0.94400
O2205       O  0.11874619  0.22827952  0.13706487    -0.90200
O2206       O  0.13908951  0.21141184  0.10957350    -0.83300
C2207       C  0.12336351  0.22437285  0.11662554     1.11800
O2208       O  0.21628497  0.22211546  0.20483333    -0.96400
Zr2209     Zr  0.19809012  0.20816983  0.17164794     1.88900
O2210       O  0.19002585  0.20692973  0.10913526    -0.73100
O2211       O  0.14361308  0.25365853  0.17380998    -0.52300
O2212       O  0.19537870  0.24824732  0.17399578    -0.97000
O2213       O  0.23720858  0.19787459  0.17338459    -0.54200
O2214       O  0.21356152  0.21927029  0.13558925    -0.73600
C2215       C  0.20744312  0.21675597  0.11527407     0.98800
O2216       O  0.14737151  0.16917338  0.09142163    -0.62400
O2217       O  0.18677608  0.10543221  0.15261031    -0.57200
O2218       O  0.19015813  0.16131159  0.10417147    -0.93900
O2219       O  0.20585873  0.13714332  0.12808497    -0.92300
O2220       O  0.12541631  0.11090982  0.15828716    -0.92700
O2221       O  0.10553352  0.13825172  0.13140302    -0.91400
C2222       C  0.20422950  0.14610281  0.10910156     1.17600
H2223       H  0.15422337  0.12986411  0.19226182     0.33600
H2224       H  0.11724606  0.18653099  0.13662195     0.44400
H2225       H  0.20878420  0.17699481  0.13857374     0.37900
H2226       H  0.16617238  0.21997322  0.20563659     0.34400
H2227       H  0.08218368  0.16456158  0.18196162     0.26200
H2228       H  0.12937401  0.26186168  0.17255759     0.32100
H2229       H  0.19172569  0.25284280  0.15883331     0.38100
H2230       H  0.12143576  0.10453624  0.17262512     0.32500
H2231       H  0.19956010  0.09783466  0.15945331     0.31400
H2232       H  0.23352480  0.12641092  0.16688084     0.33100
H2233       H  0.24051593  0.18973444  0.15934175     0.32000
H2234       H  0.11690401  0.13855382  0.11960719     0.36000
H2235       H  0.13135343  0.16858395  0.09459759     0.28800
H2236       H  0.16800143  0.20433056  0.24651565     0.33000
H2237       H  0.22683112  0.23310957  0.19966623     0.35900
H2238       H  0.17377898  0.10006293  0.16067103     0.28500
H2239       H  0.14875252  0.18086657  0.08042126     0.41300
H2240       H  0.08747209  0.21246593  0.17997587     0.31400
H2241       H  0.08348134  0.17398922  0.15815628     0.39000
H2242       H  0.23813962  0.18650578  0.18481859     0.30900
H2243       H  0.14809479  0.25616937  0.18936094     0.30900
H2244       H  0.18983457  0.19063783  0.24192004     0.31200
Zr2245     Zr  0.03690157  0.06068959  0.22600967     2.17500
O2246       O  0.02144044  0.05424559  0.26244314    -0.51200
O2247       O  0.05895121  0.09249099  0.23481956    -0.74400
O2248       O  0.07078903  0.04816763  0.24509210    -0.81200
O2249       O  0.99879800  0.10372591  0.20071278    -0.82900
O2250       O  0.07539795  0.01231160  0.23500146    -0.78500
O2251       O  0.01552444  0.09493802  0.23309255    -0.90200
O2252       O  0.08263823  0.09448340  0.20566997    -0.76100
O2253       O  0.06875807  0.04742084  0.20650476    -0.85600
O2254       O  0.03906812  0.08214572  0.19365372    -0.85300
O2255       O  0.03061781  0.02221678  0.21719533    -0.72100
O2256       O  0.00349504  0.05413484  0.20525554    -0.84200
Zr2257     Zr  0.03546315  0.02518696  0.14480537     2.26400
Zr2258     Zr  0.06305097  0.00949574  0.19717670     2.06300
Zr2259     Zr  0.00684428  0.07537065  0.17267373     2.10000
Zr2260     Zr  0.07184151  0.07009655  0.17572429     1.78800
O2261       O  0.96671262  0.07477148  0.17412632    -0.93000
O2262       O  0.11074003  0.06120616  0.18182455    -0.40800
O2263       O  0.03999612  0.06361072  0.15365630    -0.77400
O2264       O  0.06821948  0.03224379  0.16563473    -0.96100
O2265       O  0.03085556  0.00252104  0.17597557    -0.89400
O2266       O  0.00202209  0.03794011  0.16268554    -0.92300
C2267       C  0.07514954  0.10098418  0.22465293     1.01500
C2268       C  0.00385715  0.10785132  0.22094983     1.14400
C2269       C  0.08131980  0.02949119  0.24582911     1.05200
O2270       O  0.10028977  0.99613723  0.20491041    -0.94400
O2271       O  0.08242065  0.98945189  0.16704295    -0.90200
O2272       O  0.06506026  0.99902442  0.13540117    -0.83300
C2273       C  0.08026391  0.98878415  0.14590285     1.11800
O2274       O  0.98148808  0.01110873  0.23101950    -0.96400
Zr2275     Zr  0.99824212  0.01603050  0.19479376     1.88900
O2276       O  0.01195473  0.99371489  0.14415279    -0.73100
O2277       O  0.05041699  0.97357416  0.20799932    -0.52300
O2278       O  0.00027756  0.97666520  0.20156926    -0.97000
O2279       O  0.95892772  0.02536744  0.19708367    -0.54200
O2280       O  0.98033405  0.00106203  0.16177490    -0.73600
C2281       C  0.99099178  0.99497951  0.14431488     0.98800
O2282       O  0.04176849  0.01968242  0.10504094    -0.62400
O2283       O  0.00468626  0.11139329  0.15578143    -0.57200
O2284       O  0.01992372  0.04757675  0.11610365    -0.93900
O2285       O  0.00167846  0.07654202  0.13294691    -0.92300
O2286       O  0.07143167  0.10775849  0.16273356    -0.92700
O2287       O  0.09064026  0.07319880  0.14067581    -0.91400
C2288       C  0.00834190  0.06542783  0.11572106     1.17600
H2289       H  0.04005080  0.09775045  0.19683325     0.33600
H2290       H  0.08159835  0.02870708  0.15745864     0.44400
H2291       H  0.98957434  0.03756423  0.15281900     0.37900
H2292       H  0.02937375  0.01418344  0.23074552     0.34400
H2293       H  0.11159834  0.05689258  0.19748010     0.26200
H2294       H  0.05770388  0.96305576  0.19736253     0.32100
H2295       H  0.98755467  0.97049875  0.19353436     0.38100
H2296       H  0.05733628  0.10937916  0.15468130     0.32500
H2297       H  0.99011244  0.11778160  0.16029516     0.31400
H2298       H  0.96208284  0.07505909  0.15846611     0.33100
H2299       H  0.95145407  0.01109641  0.19547550     0.32000
H2300       H  0.07879248  0.07800458  0.13053613     0.36000
H2301       H  0.05754616  0.02256904  0.10235704     0.28800
H2302       H  0.03029294  0.04168843  0.26807452     0.33000
H2303       H  0.97247490  0.99778528  0.22949469     0.35900
H2304       H  0.01556891  0.12044132  0.16378839     0.28500
H2305       H  0.04029285  0.00369289  0.10189058     0.41300
H2306       H  0.10957864  0.00898909  0.20219157     0.31400
H2307       H  0.11370457  0.04732345  0.17329488     0.39000
H2308       H  0.95557219  0.03299694  0.18318614     0.30900
H2309       H  0.05788803  0.97084438  0.22221689     0.30900
H2310       H  0.00676826  0.04806614  0.25938774     0.31200
Zr2311     Zr  0.04028452  0.21087014  0.04526969     2.17500
O2312       O  0.02350632  0.24663183  0.03744078    -0.51200
O2313       O  0.07301159  0.22300929  0.06452805    -0.74400
O2314       O  0.02779355  0.22412284  0.08312701    -0.81200
O2315       O  0.07782962  0.20237413  0.99360187    -0.82900
O2316       O  0.01498917  0.19458635  0.10127000    -0.78500
O2317       O  0.07034716  0.22667999  0.02196237    -0.90200
O2318       O  0.09368868  0.19172169  0.06959878    -0.76100
O2319       O  0.04396860  0.18371245  0.07267212    -0.85600
O2320       O  0.06763791  0.18478844  0.03214927    -0.85300
O2321       O  0.00473879  0.19279519  0.04725177    -0.72100
O2322       O  0.02529151  0.19564601  0.01093454    -0.84200
Zr2323     Zr  0.02796777  0.12475922  0.02908160     2.26400
Zr2324     Zr  0.00973653  0.16542358  0.07469171     2.06300
Zr2325     Zr  0.05396919  0.17130775  0.99755460     2.10000
Zr2326     Zr  0.07249618  0.15938481  0.06054596     1.78800
O2327       O  0.02941271  0.18316288  0.96818069    -0.93000
O2328       O  0.07183545  0.16087584  0.10076000    -0.40800
O2329       O  0.06073538  0.14509401  0.02579458    -0.77400
O2330       O  0.03904204  0.14003645  0.06419646    -0.96100
O2331       O  0.99793762  0.14773506  0.04163685    -0.89400
O2332       O  0.02141287  0.15048449  0.00036798    -0.92300
C2333       C  0.09065009  0.21270825  0.07043865     1.01500
C2334       C  0.08210144  0.21976416  0.00499277     1.14400
C2335       C  0.02054143  0.21472541  0.10075753     1.05200
O2336       O  0.01183756  0.15360181  0.11281548    -0.94400
O2337       O  0.99425987  0.13037562  0.08231890    -0.90200
O2338       O  0.01229435  0.10513177  0.06006500    -0.83300
C2339       C  0.99978776  0.11061381  0.07665150     1.11800
O2340       O  0.97541764  0.20696553  0.99838381    -0.96400
Zr2341     Zr  0.99190576  0.17387237  0.01398224     1.88900
O2342       O  0.99875456  0.11467624  0.00474786    -0.73100
O2343       O  0.97150102  0.17781386  0.08024905    -0.52300
O2344       O  0.95669090  0.18392811  0.03145273    -0.97000
O2345       O  0.98209708  0.16962528  0.97502453    -0.54200
O2346       O  0.97128387  0.13851132  0.01374150    -0.73600
C2347       C  0.97853938  0.11869394  0.00923978     0.98800
O2348       O  0.03678528  0.08549349  0.02508951    -0.62400
O2349       O  0.07764687  0.16707408  0.96478108    -0.57200
O2350       O  0.05948423  0.11090591  0.00783245    -0.93900
O2351       O  0.07161572  0.13727357  0.98498294    -0.92300
O2352       O  0.11074029  0.15174162  0.04987098    -0.92700
O2353       O  0.08699263  0.12262401  0.06815335    -0.91400
C2354       C  0.07258372  0.11805871  0.99307027     1.17600
H2355       H  0.08242580  0.18996729  0.03070680     0.33600
H2356       H  0.04119895  0.12894120  0.07516466     0.44400
H2357       H  0.01849774  0.14336922  0.98630548     0.37900
H2358       H  0.99361305  0.20353468  0.05220878     0.34400
H2359       H  0.07199125  0.14528344  0.10515293     0.26200
H2360       H  0.96436676  0.16543266  0.08760413     0.32100
H2361       H  0.94549140  0.17976867  0.02035429     0.38100
H2362       H  0.11345278  0.16149224  0.03731487     0.32500
H2363       H  0.07292919  0.17897202  0.95482338     0.31400
H2364       H  0.03048596  0.17119107  0.95679032     0.33100
H2365       H  0.96575477  0.17016541  0.97497777     0.32000
H2366       H  0.08445606  0.11395277  0.05436078     0.36000
H2367       H  0.03968178  0.08013867  0.04014431     0.28800
H2368       H  0.00742605  0.24414426  0.03793418     0.33000
H2369       H  0.98278654  0.21926521  0.00616843     0.35900
H2370       H  0.09270720  0.17102225  0.96949357     0.28500
H2371       H  0.02286147  0.07865169  0.02048135     0.41300
H2372       H  0.02528811  0.14404115  0.11331279     0.31400
H2373       H  0.08647474  0.16640322  0.10501502     0.39000
H2374       H  0.98590154  0.15415845  0.97077997     0.30900
H2375       H  0.97206235  0.18956761  0.09184217     0.30900
H2376       H  0.02679605  0.24883650  0.02160956     0.31200
Zr2377     Zr  0.15703176  0.00379037  0.06944894     2.17500
O2378       O  0.17193265  0.96886112  0.05466028    -0.51200
O2379       O  0.13597632  0.99003622  0.10023213    -0.74400
O2380       O  0.17749721  0.99203183  0.10297954    -0.81200
O2381       O  0.10801586  0.00991787  0.02995814    -0.82900
O2382       O  0.19860975  0.02033172  0.11515371    -0.78500
O2383       O  0.12375678  0.98557535  0.05336459    -0.90200
O2384       O  0.12589654  0.02087155  0.12036454    -0.76100
O2385       O  0.16262446  0.03109838  0.09731550    -0.85600
O2386       O  0.12574644  0.02818359  0.06953386    -0.85300
O2387       O  0.19094534  0.02255995  0.05990736    -0.72100
O2388       O  0.15839075  0.02095125  0.03363540    -0.84200
Zr2389     Zr  0.16104792  0.09010936  0.05677504     2.26400
Zr2390     Zr  0.19567094  0.04948958  0.08906980     2.06300
Zr2391     Zr  0.12621806  0.04435340  0.03404706     2.10000
Zr2392     Zr  0.13079759  0.05386344  0.09905417     1.78800
O2393       O  0.12487157  0.03216275  0.99542072    -0.93000
O2394       O  0.13886952  0.06358802  0.13746120    -0.40800
O2395       O  0.12804606  0.07081475  0.06390717    -0.77400
O2396       O  0.16375787  0.07354064  0.09208957    -0.96100
O2397       O  0.19388459  0.06807588  0.05521720    -0.89400
O2398       O  0.15821048  0.06472875  0.02641546    -0.92300
C2399       C  0.12762189  0.99988452  0.11743467     1.01500
C2400       C  0.10845135  0.99140378  0.03958833     1.14400
C2401       C  0.19046564  0.00122800  0.11725240     1.05200
O2402       O  0.20688748  0.06350973  0.12518789    -0.94400
O2403       O  0.21481962  0.08404297  0.08736225    -0.90200
O2404       O  0.19049948  0.10989408  0.07471124    -0.83300
C2405       C  0.20921025  0.10386259  0.08266344     1.11800
O2406       O  0.20758373  0.00991802  0.00799238    -0.96400
Zr2407     Zr  0.19065797  0.04270097  0.02559222     1.88900
O2408       O  0.18255125  0.10582791  0.02884032    -0.73100
O2409       O  0.23277568  0.03503140  0.08110039    -0.52300
O2410       O  0.23049652  0.04245395  0.03082319    -0.97000
O2411       O  0.18226787  0.03900718  0.98630941    -0.54200
O2412       O  0.20175214  0.07895467  0.00982434    -0.73600
C2413       C  0.19607714  0.09948097  0.01367728     0.98800
O2414       O  0.14606662  0.12405650  0.07365074    -0.62400
O2415       O  0.08681142  0.05325914  0.03634849    -0.57200
O2416       O  0.13524912  0.10593689  0.03044820    -0.93900
O2417       O  0.11704690  0.07726906  0.01480504    -0.92300
O2418       O  0.09122553  0.04839574  0.10121453    -0.92700
O2419       O  0.11371013  0.08997508  0.10641991    -0.91400
C2420       C  0.12174059  0.09765042  0.01639742     1.17600
H2421       H  0.11216161  0.02084987  0.07224297     0.33600
H2422       H  0.16594582  0.08470191  0.10338986     0.44400
H2423       H  0.15726695  0.07194810  0.01243564     0.37900
H2424       H  0.20311927  0.01197939  0.05965647     0.34400
H2425       H  0.14982654  0.05228375  0.14208790     0.26200
H2426       H  0.24267431  0.04618349  0.08762009     0.32100
H2427       H  0.23424894  0.05812846  0.03302117     0.38100
H2428       H  0.08488240  0.05756054  0.08941071     0.32500
H2429       H  0.08079466  0.04813383  0.02198431     0.31400
H2430       H  0.11593972  0.04354839  0.98786855     0.33100
H2431       H  0.17973478  0.05422891  0.98123215     0.32000
H2432       H  0.12615388  0.09953076  0.11032627     0.36000
H2433       H  0.13031559  0.12108401  0.07625112     0.28800
H2434       H  0.18207679  0.96345877  0.06620624     0.33000
H2435       H  0.21896818  0.01542068  0.99784803     0.35900
H2436       H  0.08086644  0.04300983  0.04724418     0.28500
H2437       H  0.15249385  0.12467615  0.08866238     0.41300
H2438       H  0.19361891  0.06215257  0.13463411     0.31400
H2439       H  0.14732411  0.07728164  0.13693544     0.39000
H2440       H  0.16752570  0.03238462  0.98582992     0.30900
H2441       H  0.23468857  0.02213343  0.09066775     0.30900
H2442       H  0.18174641  0.97299758  0.04237923     0.31200
Zr2443     Zr  0.24677557  0.25730705  0.95192221     2.17500
O2444       O  0.27462867  0.27151441  0.92702264    -0.51200
O2445       O  0.24609298  0.29839112  0.95553536    -0.74400
O2446       O  0.23671009  0.25274930  0.91288172    -0.81200
O2447       O  0.28946980  0.24448858  0.99527409    -0.82900
O2448       O  0.20037561  0.24437841  0.91048658    -0.78500
O2449       O  0.28609394  0.24943116  0.95832560    -0.90200
O2450       O  0.22218908  0.31251788  0.98145304    -0.76100
O2451       O  0.20921943  0.26896420  0.95695787    -0.85600
O2452       O  0.24356836  0.26860684  0.98986609    -0.85300
O2453       O  0.22528118  0.22496792  0.94330285    -0.72100
O2454       O  0.25662948  0.22520962  0.97285483    -0.84200
Zr2455     Zr  0.19266998  0.21721404  0.00696465     2.26400
Zr2456     Zr  0.18743760  0.23722832  0.94830544     2.06300
Zr2457     Zr  0.25276993  0.23676049  0.01075244     2.10000
Zr2458     Zr  0.20587472  0.27982202  0.99517159     1.78800
O2459       O  0.27928029  0.20975700  0.02462397    -0.93000
O2460       O  0.17602591  0.30138591  0.97869674    -0.40800
O2461       O  0.21488594  0.24830909  0.01675665    -0.77400
O2462       O  0.18351680  0.24936348  0.98616053    -0.96100
O2463       O  0.19639868  0.20520742  0.96940310    -0.89400
O2464       O  0.23035478  0.20546664  0.00269032    -0.92300
C2465       C  0.23698574  0.31473681  0.96666259     1.01500
C2466       C  0.29775321  0.24741760  0.97588591     1.14400
C2467       C  0.21923134  0.24852380  0.90172598     1.05200
O2468       O  0.16292922  0.26632391  0.93499493    -0.94400
O2469       O  0.15014154  0.22894293  0.96255768    -0.90200
O2470       O  0.15296028  0.22082596  0.99901581    -0.83300
C2471       C  0.14153875  0.22453433  0.98152560     1.11800
O2472       O  0.26156146  0.18436352  0.93647788    -0.96400
Zr2473     Zr  0.23426419  0.19371723  0.96516963     1.88900
O2474       O  0.19201866  0.17683000  0.00408281    -0.73100
O2475       O  0.17175542  0.20939364  0.92378108    -0.52300
O2476       O  0.21842890  0.17184900  0.93515811    -0.97000
O2477       O  0.26553976  0.17310378  0.98024206    -0.54200
O2478       O  0.21882053  0.16142697  0.98199643    -0.73600
C2479       C  0.20259584  0.16002943  0.99548401     0.98800
O2480       O  0.16340777  0.21427163  0.03458793    -0.62400
O2481       O  0.26590870  0.26567865  0.03558755    -0.57200
O2482       O  0.20666408  0.21473708  0.04453695    -0.93900
O2483       O  0.24199586  0.22621724  0.04796417    -0.92300
O2484       O  0.21894402  0.30022372  0.02750455    -0.92700
O2485       O  0.17743926  0.28738762  0.02316079    -0.91400
C2486       C  0.22415129  0.21839611  0.05579869     1.17600
H2487       H  0.25352169  0.28034386  0.99353788     0.33600
H2488       H  0.16881090  0.25504661  0.98916413     0.44400
H2489       H  0.23396079  0.19359918  0.01248666     0.37900
H2490       H  0.22788775  0.21896752  0.92863367     0.34400
H2491       H  0.17480872  0.31507103  0.98790149     0.26200
H2492       H  0.16621057  0.21758489  0.91091077     0.32100
H2493       H  0.20432666  0.16651821  0.94111070     0.38100
H2494       H  0.23396934  0.30485850  0.02351832     0.32500
H2495       H  0.25297905  0.26988504  0.04498211     0.31400
H2496       H  0.29041036  0.21857926  0.03254089     0.33100
H2497       H  0.25969731  0.16543975  0.99320463     0.32000
H2498       H  0.17560372  0.27316825  0.03054470     0.36000
H2499       H  0.16718025  0.20106894  0.04321909     0.28800
H2500       H  0.26687160  0.28279811  0.91819962     0.33000
H2501       H  0.26352803  0.16813831  0.93677204     0.35900
H2502       H  0.27618358  0.25801069  0.04566222     0.28500
H2503       H  0.16515218  0.22694003  0.04499339     0.41300
H2504       H  0.17283222  0.27712558  0.92837148     0.31400
H2505       H  0.18197547  0.30618663  0.96436521     0.39000
H2506       H  0.27517569  0.18449727  0.98665114     0.30900
H2507       H  0.18465534  0.20070299  0.91800108     0.30900
H2508       H  0.27838014  0.25938685  0.91631603     0.31200
Zr2509     Zr  0.18674146  0.00604843  0.22648251     2.17500
O2510       O  0.15869462  0.00693980  0.19774405    -0.51200
O2511       O  0.18739513  0.04590161  0.22212112    -0.74400
O2512       O  0.14887587  0.00950548  0.24101815    -0.81200
O2513       O  0.23248369  0.99110786  0.18407288    -0.82900
O2514       O  0.14734007  0.00068474  0.27732212    -0.78500
O2515       O  0.19562231  0.99871539  0.18719138    -0.90200
O2516       O  0.20827365  0.06233568  0.24850329    -0.76100
O2517       O  0.19093949  0.02006184  0.26334595    -0.85600
O2518       O  0.22377342  0.01825701  0.22877195    -0.85300
O2519       O  0.17939149  0.97555042  0.24990284    -0.72100
O2520       O  0.20959185  0.97408132  0.21852276    -0.84200
Zr2521     Zr  0.24482693  0.96995600  0.28204019     2.26400
Zr2522     Zr  0.18479503  0.98957614  0.28692703     2.06300
Zr2523     Zr  0.24668399  0.98618216  0.22136829     2.10000
Zr2524     Zr  0.22797021  0.03200419  0.26575247     1.78800
O2525       O  0.26097470  0.95486398  0.19930672    -0.93000
O2526       O  0.21415231  0.05530080  0.29640983    -0.40800
O2527       O  0.25136584  0.00029398  0.25821753    -0.77400
O2528       O  0.22181883  0.00234590  0.29024927    -0.96100
O2529       O  0.20794253  0.95760155  0.27957073    -0.89400
O2530       O  0.24057842  0.95588696  0.24516947    -0.92300
C2531       C  0.19531813  0.06298176  0.23186001     1.01500
C2532       C  0.21332349  0.99475964  0.17571163     1.14400
C2533       C  0.13839538  0.00688117  0.25928380     1.05200
O2534       O  0.17088217  0.01725390  0.31359637    -0.94400
O2535       O  0.19735191  0.98120630  0.32391472    -0.90200
O2536       O  0.23442420  0.97460872  0.32127053    -0.83300
C2537       C  0.21637053  0.97752028  0.33243113     1.11800
O2538       O  0.17435490  0.93219957  0.21748653    -0.96400
Zr2539     Zr  0.20331385  0.94413135  0.24255055     1.88900
O2540       O  0.24593982  0.92901696  0.28247094    -0.73100
O2541       O  0.16116270  0.96054781  0.29966771    -0.52300
O2542       O  0.17449597  0.92485149  0.26198867    -0.97000
O2543       O  0.21666232  0.92247573  0.21052266    -0.54200
O2544       O  0.22246201  0.91281908  0.25831109    -0.73600
C2545       C  0.23725199  0.91185541  0.27326170     0.98800
O2546       O  0.27593120  0.96104068  0.30600849    -0.62400
O2547       O  0.27009104  0.01264783  0.20343933    -0.57200
O2548       O  0.28283458  0.97876900  0.27176297    -0.93900
O2549       O  0.28444032  0.98187970  0.23439440    -0.92300
O2550       O  0.25628642  0.05368337  0.24841494    -0.92700
O2551       O  0.25666156  0.04230770  0.29185595    -0.91400
C2552       C  0.29351198  0.98085599  0.25349009     1.17600
H2553       H  0.22672699  0.02937579  0.21814289     0.33600
H2554       H  0.22434769  0.00860873  0.30476500     0.44400
H2555       H  0.25101579  0.94401272  0.24185515     0.37900
H2556       H  0.16448768  0.97080758  0.24801467     0.34400
H2557       H  0.22104812  0.06972410  0.29430974     0.26200
H2558       H  0.15208494  0.96765950  0.31162044     0.32100
H2559       H  0.18222455  0.91596867  0.27319640     0.38100
H2560       H  0.25250800  0.06914500  0.25277388     0.32500
H2561       H  0.25992947  0.02225712  0.19501772     0.31400
H2562       H  0.27661899  0.95818476  0.19640079     0.33100
H2563       H  0.23109056  0.91610900  0.21501437     0.32000
H2564       H  0.26442455  0.02827372  0.29525325     0.36000
H2565       H  0.27681527  0.97346193  0.31685429     0.28800
H2566       H  0.14962940  0.02049184  0.20071044     0.33000
H2567       H  0.17366944  0.91603984  0.21908768     0.35900
H2568       H  0.27534026  0.02226597  0.21565796     0.28500
H2569       H  0.27120694  0.94840263  0.31476747     0.41300
H2570       H  0.18343228  0.02710661  0.31615477     0.31400
H2571       H  0.19835938  0.05802586  0.29309745     0.39000
H2572       H  0.22040764  0.93349462  0.19939159     0.30900
H2573       H  0.15066357  0.95793800  0.28746348     0.30900
H2574       H  0.14887870  0.99456761  0.20080213     0.31200
Zr2575     Zr  0.99638471  0.00633039  0.02696576     2.17500
O2576       O  0.02543234  0.03082580  0.03911848    -0.51200
O2577       O  0.99266914  0.00596128  0.06727535    -0.74400
O2578       O  0.98479336  0.04513958  0.02582996    -0.81200
O2579       O  0.04156933  0.96007156  0.01854641    -0.82900
O2580       O  0.95134568  0.05035674  0.00982877    -0.78500
O2581       O  0.03565304  0.99683243  0.02426506    -0.90200
O2582       O  0.96699855  0.98217079  0.07878686    -0.76100
O2583       O  0.95803355  0.00368674  0.03454157    -0.85600
O2584       O  0.99211535  0.96949846  0.03856149    -0.85300
O2585       O  0.97899196  0.01506906  0.99230535    -0.72100
O2586       O  0.00905699  0.98344228  0.99625665    -0.84200
Zr2587     Zr  0.94692870  0.95166092  0.98219716     2.26400
Zr2588     Zr  0.94025069  0.01238167  0.00022985     2.06300
Zr2589     Zr  0.00473192  0.94652910  0.00805261     2.10000
Zr2590     Zr  0.95341785  0.96630584  0.04512649     1.78800
O2591       O  0.03555088  0.93034734  0.98678384    -0.93000
O2592       O  0.92186859  0.98085235  0.06650617    -0.40800
O2593       O  0.96597454  0.94240460  0.01545809    -0.77400
O2594       O  0.93434932  0.97540003  0.01215157    -0.96100
O2595       O  0.95182722  0.98824978  0.97018972    -0.89400
O2596       O  0.98539524  0.95409332  0.97442111    -0.92300
C2597       C  0.98176770  0.99635441  0.08240579     1.01500
C2598       C  0.04846799  0.97972907  0.02222895     1.14400
C2599       C  0.96888338  0.05763958  0.01913822     1.05200
O2600       O  0.91152655  0.02771076  0.02481729    -0.94400
O2601       O  0.90516287  0.00025450  0.98457644    -0.90200
O2602       O  0.90905344  0.96376079  0.97517080    -0.83300
C2603       C  0.89767703  0.98185891  0.97711997     1.11800
O2604       O  0.02183699  0.01371434  0.95700166    -0.96400
Zr2605     Zr  0.99010812  0.99042803  0.96225242     1.88900
O2606       O  0.94617538  0.95154089  0.94226610    -0.73100
O2607       O  0.93001137  0.03561270  0.96949066    -0.52300
O2608       O  0.97952893  0.02188676  0.94009800    -0.97000
O2609       O  0.01992946  0.97156728  0.94153377    -0.54200
O2610       O  0.97261714  0.97393940  0.92941485    -0.73600
C2611       C  0.95665553  0.96056806  0.92656679     0.98800
O2612       O  0.91969437  0.92335967  0.98823286    -0.62400
O2613       O  0.01197295  0.92288311  0.03928408    -0.57200
O2614       O  0.96193728  0.91470248  0.97479799    -0.93900
O2615       O  0.99510307  0.91057641  0.99211518    -0.92300
O2616       O  0.96572643  0.93482643  0.06640280    -0.92700
O2617       O  0.92334080  0.94071888  0.04871649    -0.91400
C2618       C  0.97904616  0.90329915  0.98042263     1.17600
H2619       H  0.00075498  0.96632664  0.05157514     0.33600
H2620       H  0.91887804  0.97336409  0.01513050     0.44400
H2621       H  0.98990768  0.94371836  0.96279421     0.37900
H2622       H  0.98254618  0.02961015  0.98765017     0.34400
H2623       H  0.92342047  0.97428901  0.08126361     0.26200
H2624       H  0.91888259  0.04624845  0.97577404     0.32100
H2625       H  0.96371620  0.01983125  0.93682399     0.38100
H2626       H  0.95974889  0.93779484  0.08147808     0.32500
H2627       H  0.99955494  0.91258852  0.03928967     0.31400
H2628       H  0.04231206  0.91925529  0.99656259     0.33100
H2629       H  0.01365908  0.95777699  0.93554605     0.32000
H2630       H  0.92784776  0.92776971  0.03935680     0.36000
H2631       H  0.92725295  0.91208230  0.99721781     0.28800
H2632       H  0.01875759  0.04046042  0.05090996     0.33000
H2633       H  0.02325357  0.01537136  0.94081746     0.35900
H2634       H  0.02493848  0.91363355  0.03464796     0.28500
H2635       H  0.90868308  0.93020413  0.99859904     0.41300
H2636       H  0.91901608  0.03035101  0.03910367     0.31400
H2637       H  0.92486436  0.99666377  0.06903034     0.39000
H2638       H  0.03046802  0.96668112  0.95296989     0.30900
H2639       H  0.94314264  0.04453121  0.96667407     0.30900
H2640       H  0.02796834  0.04058518  0.02655142     0.31200
Zr2641     Zr  0.01118848  0.21531636  0.22164130     2.17500
O2642       O  0.04119290  0.18803624  0.21645686    -0.51200
O2643       O  0.01602329  0.21440750  0.18089449    -0.74400
O2644       O  0.99939745  0.17711452  0.22290215    -0.81200
O2645       O  0.05170171  0.26010923  0.23692487    -0.82900
O2646       O  0.96215122  0.17624795  0.22699543    -0.78500
O2647       O  0.04911176  0.22311359  0.23120220    -0.90200
O2648       O  0.99564077  0.24090530  0.16413313    -0.76100
O2649       O  0.97525588  0.21942240  0.20658911    -0.85600
O2650       O  0.00905503  0.25210908  0.20888560    -0.85300
O2651       O  0.98671408  0.20912829  0.25241692    -0.72100
O2652       O  0.01719740  0.23889364  0.25353027    -0.84200
Zr2653     Zr  0.95224133  0.27377239  0.25554271     2.26400
Zr2654     Zr  0.95051568  0.21377815  0.23701750     2.06300
Zr2655     Zr  0.01402361  0.27568512  0.24069837     2.10000
Zr2656     Zr  0.97291495  0.25636061  0.19411210     1.78800
O2657       O  0.03428000  0.29228270  0.27124326    -0.93000
O2658       O  0.94696336  0.23784038  0.16976975    -0.40800
O2659       O  0.97769700  0.28008274  0.22575537    -0.77400
O2660       O  0.94678281  0.25038886  0.22326901    -0.96100
O2661       O  0.95555178  0.23740008  0.26881756    -0.89400
O2662       O  0.98852382  0.27065322  0.27059670    -0.92300
C2663       C  0.00971039  0.22483510  0.16358566     1.01500
C2664       C  0.06027331  0.24057044  0.23445821     1.14400
C2665       C  0.98113695  0.16687538  0.22390937     1.05200
O2666       O  0.92611672  0.19946356  0.20856905    -0.94400
O2667       O  0.91284499  0.22633092  0.24493068    -0.90200
O2668       O  0.91362249  0.26344930  0.25067703    -0.83300
C2669       C  0.90336573  0.24524297  0.24824179     1.11800
O2670       O  0.01635700  0.20473076  0.29663875    -0.96400
Zr2671     Zr  0.99191588  0.23399972  0.28346488     1.88900
O2672       O  0.94945679  0.27729570  0.29634078    -0.73100
O2673       O  0.93615223  0.19050016  0.26571558    -0.52300
O2674       O  0.97299148  0.20768665  0.30617717    -0.97000
O2675       O  0.02278762  0.24905398  0.30415123    -0.54200
O2676       O  0.97431666  0.25521576  0.31360871    -0.73600
C2677       C  0.95858666  0.26971254  0.31391267     0.98800
O2678       O  0.92302367  0.30142427  0.26319872    -0.62400
O2679       O  0.03267504  0.29851300  0.21414713    -0.57200
O2680       O  0.96196260  0.31104967  0.24586711    -0.93900
O2681       O  0.99932706  0.31329653  0.24421834    -0.92300
O2682       O  0.98810584  0.28658506  0.17368797    -0.92700
O2683       O  0.94509551  0.28287645  0.18178749    -0.91400
C2684       C  0.97977689  0.32194872  0.24437429     1.17600
H2685       H  0.02033653  0.25469120  0.19799071     0.33600
H2686       H  0.93247273  0.25274102  0.21673537     0.44400
H2687       H  0.99075268  0.28157997  0.28218447     0.37900
H2688       H  0.98870185  0.19451994  0.25808334     0.34400
H2689       H  0.94873809  0.24489314  0.15530476     0.26200
H2690       H  0.92735061  0.17940109  0.25766924     0.32100
H2691       H  0.95711790  0.21164417  0.30491146     0.38100
H2692       H  0.99908552  0.29312308  0.18378460     0.32500
H2693       H  0.04409600  0.30617254  0.22284221     0.31400
H2694       H  0.04083678  0.30558889  0.26504207     0.33100
H2695       H  0.02045155  0.26523053  0.30410838     0.32000
H2696       H  0.94443403  0.29442076  0.19363098     0.36000
H2697       H  0.92954574  0.31268711  0.27313573     0.28800
H2698       H  0.03717199  0.17884594  0.20341352     0.33000
H2699       H  0.01656111  0.20670618  0.31293670     0.35900
H2700       H  0.04111193  0.28809769  0.20429394     0.28500
H2701       H  0.92027985  0.30897950  0.24911507     0.41300
H2702       H  0.92247117  0.21229964  0.19938255     0.31400
H2703       H  0.95327035  0.22277116  0.16739850     0.39000
H2704       H  0.03588300  0.24622736  0.29453567     0.30900
H2705       H  0.94917232  0.18212967  0.27112676     0.30900
H2706       H  0.04043968  0.17811574  0.22918305     0.31200
Zr2707     Zr  0.46592561  0.76143145  0.28709992     2.17500
O2708       O  0.45985590  0.78885629  0.31687736    -0.51200
O2709       O  0.42583983  0.76090554  0.29188740    -0.74400
O2710       O  0.46526263  0.79937858  0.27449748    -0.81200
O2711       O  0.48088739  0.71530167  0.32858337    -0.82900
O2712       O  0.47175492  0.80260051  0.23773841    -0.78500
O2713       O  0.47560010  0.75225801  0.32500413    -0.90200
O2714       O  0.41062573  0.73354804  0.27127142    -0.76100
O2715       O  0.45198687  0.75694464  0.25066667    -0.85600
O2716       O  0.45384708  0.72446490  0.28460132    -0.85300
O2717       O  0.49646100  0.76919087  0.26300444    -0.72100
O2718       O  0.49783037  0.73871140  0.29411922    -0.84200
Zr2719     Zr  0.50234643  0.70383239  0.22946881     2.26400
Zr2720     Zr  0.48223776  0.76416693  0.22621899     2.06300
Zr2721     Zr  0.48575219  0.70162154  0.29059781     2.10000
Zr2722     Zr  0.44055138  0.71965891  0.24788850     1.78800
O2723       O  0.51512096  0.68665025  0.31348568    -0.93000
O2724       O  0.41424332  0.73773909  0.22349968    -0.40800
O2725       O  0.47211192  0.69607293  0.25370778    -0.77400
O2726       O  0.47003299  0.72680558  0.22283074    -0.96100
O2727       O  0.51419367  0.74095472  0.23264903    -0.89400
O2728       O  0.51605170  0.70814456  0.26614070    -0.92300
C2729       C  0.40938712  0.74944306  0.28552171     1.01500
C2730       C  0.47893846  0.73501516  0.33658737     1.14400
C2731       C  0.46688456  0.81091979  0.25703968     1.05200
O2732       O  0.45266727  0.77703199  0.20235120    -0.94400
O2733       O  0.49109902  0.74955880  0.18873722    -0.90200
O2734       O  0.49808148  0.71259050  0.19028376    -0.83300
C2735       C  0.49531462  0.73049063  0.17955606     1.11800
O2736       O  0.53698736  0.77670127  0.29314715    -0.96400
Zr2737     Zr  0.52768871  0.74527031  0.26945555     1.88900
O2738       O  0.54302422  0.70230680  0.22772865    -0.73100
O2739       O  0.51020256  0.78796737  0.21138039    -0.52300
O2740       O  0.55129208  0.77027134  0.24981854    -0.97000
O2741       O  0.54860348  0.73334500  0.30154968    -0.54200
O2742       O  0.55853446  0.72408454  0.25409120    -0.73600
C2743       C  0.55982572  0.71002946  0.23803635     0.98800
O2744       O  0.50925356  0.67636730  0.19990464    -0.62400
O2745       O  0.45668835  0.67946537  0.30603932    -0.57200
O2746       O  0.49789462  0.66567987  0.24124819    -0.93900
O2747       O  0.49452640  0.66415185  0.27863233    -0.92300
O2748       O  0.42402180  0.68581411  0.25990710    -0.92700
O2749       O  0.42839529  0.69615667  0.21735734    -0.91400
C2750       C  0.49680592  0.65510461  0.25941862     1.17600
H2751       H  0.44291459  0.72145164  0.29573019     0.33600
H2752       H  0.46390207  0.72410778  0.20836755     0.44400
H2753       H  0.52793931  0.69770916  0.26894813     0.37900
H2754       H  0.50158784  0.78401324  0.26521122     0.34400
H2755       H  0.39964869  0.73221851  0.22787312     0.26200
H2756       H  0.50183610  0.79885513  0.20260270     0.32100
H2757       H  0.55033515  0.76564883  0.23405461     0.38100
H2758       H  0.42321960  0.68738709  0.27621126     0.32500
H2759       H  0.45471263  0.66719121  0.29522387     0.31400
H2760       H  0.50769715  0.67624019  0.32325230     0.33100
H2761       H  0.55253729  0.71766692  0.29837783     0.32000
H2762       H  0.44203758  0.68855195  0.21180434     0.36000
H2763       H  0.52135765  0.66666031  0.20523149     0.28800
H2764       H  0.44695428  0.79803987  0.31250244     0.33000
H2765       H  0.55330430  0.77638170  0.29398196     0.35900
H2766       H  0.46349840  0.67244910  0.31901995     0.28500
H2767       H  0.49609119  0.66701021  0.19939150     0.41300
H2768       H  0.44706038  0.76349079  0.19514052     0.31400
H2769       H  0.41385052  0.75341204  0.22841296     0.39000
H2770       H  0.53763795  0.73297325  0.31372169     0.30900
H2771       H  0.51555456  0.79651039  0.22434154     0.30900
H2772       H  0.47259117  0.79875289  0.31636618     0.31200
Zr2773     Zr  0.00151912  0.52702396  0.50713847     2.17500
O2774       O  0.00896958  0.55566751  0.53486989    -0.51200
O2775       O  0.04211264  0.52810849  0.50733277    -0.74400
O2776       O  0.00034922  0.51367870  0.54509979    -0.81200
O2777       O  0.98792631  0.57132085  0.46253282    -0.82900
O2778       O  0.99173621  0.47746286  0.54525114    -0.78500
O2779       O  0.99180907  0.56545737  0.49928033    -0.90200
O2780       O  0.05912572  0.50449106  0.48273114    -0.76100
O2781       O  0.01416082  0.48998040  0.50161240    -0.85600
O2782       O  0.01591239  0.52489304  0.47046998    -0.85300
O2783       O  0.96923721  0.50534419  0.51300505    -0.72100
O2784       O  0.97090764  0.53635416  0.48392559    -0.84200
Zr2785     Zr  0.96653496  0.47401012  0.44583556     2.26400
Zr2786     Zr  0.98215168  0.46812212  0.50679213     2.06300
Zr2787     Zr  0.98543580  0.53393682  0.44710749     2.10000
Zr2788     Zr  0.02805715  0.48751133  0.46461075     1.78800
O2789       O  0.95778901  0.55842917  0.43103867    -0.93000
O2790       O  0.04996702  0.45769506  0.48038907    -0.40800
O2791       O  0.99816264  0.49652638  0.44041987    -0.77400
O2792       O  0.99683535  0.46472523  0.46980338    -0.96100
O2793       O  0.95205393  0.47643821  0.48253920    -0.89400
O2794       O  0.95408572  0.51128143  0.45140964    -0.92300
C2795       C  0.05952362  0.51928150  0.49811559     1.01500
C2796       C  0.98871130  0.57814941  0.48275297     1.14400
C2797       C  0.99742978  0.49547768  0.55502854     1.05200
O2798       O  0.00776682  0.43976126  0.51959610    -0.94400
O2799       O  0.97117601  0.43235971  0.49230126    -0.90200
O2800       O  0.96505112  0.43467226  0.45529502    -0.83300
C2801       C  0.96654466  0.42379209  0.47332361     1.11800
O2802       O  0.92538073  0.53268796  0.52131726    -0.96400
Zr2803     Zr  0.93948248  0.51356610  0.48804960     1.88900
O2804       O  0.92629602  0.47799658  0.43919969    -0.73100
O2805       O  0.95147258  0.45672766  0.52965338    -0.52300
O2806       O  0.91428401  0.49087162  0.50867853    -0.97000
O2807       O  0.92147069  0.54868335  0.47980560    -0.54200
O2808       O  0.91039544  0.50404083  0.46220796    -0.73600
C2809       C  0.90957593  0.48996972  0.44610263     0.98800
O2810       O  0.96751766  0.44414327  0.41811172    -0.62400
O2811       O  0.01687422  0.54861241  0.42759197    -0.57200
O2812       O  0.97326443  0.48678553  0.40837437    -0.93900
O2813       O  0.97826456  0.52381720  0.40891088    -0.92300
O2814       O  0.04920176  0.50332609  0.43480129    -0.92700
O2815       O  0.03914867  0.45888590  0.43761545    -0.91400
C2816       C  0.97546447  0.50532620  0.39883800     1.17600
H2817       H  0.02765264  0.53510604  0.46831143     0.33600
H2818       H  0.00195679  0.44977202  0.46683543     0.44400
H2819       H  0.94348098  0.51574916  0.44050121     0.37900
H2820       H  0.96354252  0.50743933  0.52787456     0.34400
H2821       H  0.06526131  0.46005253  0.47527840     0.26200
H2822       H  0.95797090  0.44542209  0.53935465     0.32100
H2823       H  0.91081177  0.47836101  0.49859629     0.38100
H2824       H  0.06432545  0.49704330  0.43634833     0.32500
H2825       H  0.02191635  0.53649021  0.41741022     0.31400
H2826       H  0.96624515  0.56823255  0.42147603     0.33100
H2827       H  0.90555998  0.54548441  0.47881395     0.32000
H2828       H  0.02806774  0.46002128  0.42571078     0.36000
H2829       H  0.95665993  0.44849740  0.40678991     0.28800
H2830       H  0.02143182  0.54996675  0.54376398     0.33000
H2831       H  0.90909675  0.53263750  0.52005354     0.35900
H2832       H  0.01037953  0.55984538  0.41780845     0.28500
H2833       H  0.98206900  0.44496753  0.41068023     0.41300
H2834       H  0.01555702  0.43423212  0.50606534     0.31400
H2835       H  0.05025784  0.46117377  0.49645679     0.39000
H2836       H  0.92596374  0.55156692  0.46440996     0.30900
H2837       H  0.94806559  0.46950761  0.53966798     0.30900
H2838       H  0.99605064  0.55586591  0.54496537     0.31200
Zr2839     Zr  0.50639154  0.51942005  0.03303768     2.17500
O2840       O  0.50746993  0.54608145  0.06366803    -0.51200
O2841       O  0.54671682  0.51828381  0.03269729    -0.74400
O2842       O  0.50983045  0.50248061  0.06912659    -0.81200
O2843       O  0.49788917  0.56534191  0.99196150    -0.82900
O2844       O  0.49368043  0.46902414  0.06923849    -0.78500
O2845       O  0.50556263  0.55973251  0.02819260    -0.90200
O2846       O  0.55978108  0.49049389  0.01010722    -0.76100
O2847       O  0.51564489  0.48138535  0.02625771    -0.85600
O2848       O  0.51921673  0.51726913  0.99571933    -0.85300
O2849       O  0.47297459  0.49950664  0.03917155    -0.72100
O2850       O  0.47614367  0.53269752  0.01126086    -0.84200
Zr2851     Zr  0.46397934  0.47263211  0.97225030     2.26400
Zr2852     Zr  0.48242326  0.46125239  0.03114222     2.06300
Zr2853     Zr  0.48882101  0.53012677  0.97376587     2.10000
Zr2854     Zr  0.52783656  0.47908379  0.98891335     1.78800
O2855       O  0.45956578  0.55410982  0.95976320    -0.93000
O2856       O  0.54590222  0.44459040  0.99914444    -0.40800
O2857       O  0.49757866  0.49200603  0.96737023    -0.77400
O2858       O  0.49473237  0.45853031  0.99339761    -0.96100
O2859       O  0.45192268  0.47457247  0.00956444    -0.89400
O2860       O  0.45514101  0.51066748  0.97883621    -0.92300
C2861       C  0.56249396  0.50620467  0.02428442     1.01500
C2862       C  0.50276549  0.57237814  0.01155256     1.14400
C2863       C  0.50376401  0.48499155  0.07876607     1.05200
O2864       O  0.50802444  0.43202079  0.04206741    -0.94400
O2865       O  0.47085738  0.42534830  0.01607246    -0.90200
O2866       O  0.45836187  0.43411991  0.98199282    -0.83300
C2867       C  0.46179476  0.42031925  0.99752138     1.11800
O2868       O  0.43647960  0.53421969  0.05049425    -0.96400
Zr2869     Zr  0.44305871  0.51259482  0.01652023     1.88900
O2870       O  0.42360079  0.47930869  0.96914159    -0.73100
O2871       O  0.45173446  0.44936255  0.05370786    -0.52300
O2872       O  0.41654201  0.49417666  0.03972005    -0.97000
O2873       O  0.42646145  0.54846105  0.00852477    -0.54200
O2874       O  0.41053667  0.50451806  0.99456657    -0.73600
C2875       C  0.40777516  0.49098269  0.97829940     0.98800
O2876       O  0.45588574  0.44971523  0.93975556    -0.62400
O2877       O  0.51686243  0.54830672  0.95214422    -0.57200
O2878       O  0.47729303  0.48247558  0.93567539    -0.93900
O2879       O  0.48845415  0.51796101  0.93465672    -0.92300
O2880       O  0.55228288  0.49459268  0.96162251    -0.92700
O2881       O  0.53566854  0.45515079  0.95681769    -0.91400
C2882       C  0.48463940  0.49912835  0.92539198     1.17600
H2883       H  0.53194595  0.52626510  0.99352547     0.33600
H2884       H  0.49835588  0.44343064  0.98907960     0.44400
H2885       H  0.44401370  0.51597966  0.96877633     0.37900
H2886       H  0.46837416  0.50133889  0.05440354     0.34400
H2887       H  0.56148969  0.44609172  0.99454529     0.26200
H2888       H  0.45785656  0.43678793  0.06201054     0.32100
H2889       H  0.41657788  0.47869075  0.03422468     0.38100
H2890       H  0.54244330  0.50377974  0.95240892     0.32500
H2891       H  0.51028651  0.56292150  0.94878786     0.31400
H2892       H  0.46685075  0.56812638  0.95668506     0.33100
H2893       H  0.41039478  0.54664756  0.01059485     0.32000
H2894       H  0.52118154  0.45339931  0.94957941     0.36000
H2895       H  0.46730748  0.43776969  0.93954452     0.28800
H2896       H  0.52123124  0.54245344  0.07168478     0.33000
H2897       H  0.42028100  0.53662515  0.05142653     0.35900
H2898       H  0.52894054  0.55151979  0.96259938     0.28500
H2899       H  0.44191194  0.44236640  0.94318718     0.41300
H2900       H  0.51359195  0.42527369  0.02799146     0.31400
H2901       H  0.54632814  0.44527822  0.01549734     0.39000
H2902       H  0.42835716  0.54995675  0.99237579     0.30900
H2903       H  0.44939726  0.46127564  0.06499768     0.30900
H2904       H  0.49527288  0.54216506  0.07368193     0.31200
Zr2905     Zr  0.44816942  0.97648165  0.45687352     2.17500
O2906       O  0.44041129  0.94868079  0.42829014    -0.51200
O2907       O  0.40796214  0.98002857  0.45383993    -0.74400
O2908       O  0.44891312  0.93868876  0.47020271    -0.81200
O2909       O  0.45788455  0.02057090  0.41322897    -0.82900
O2910       O  0.46289917  0.93542788  0.50474171    -0.78500
O2911       O  0.45548370  0.98372773  0.41828058    -0.90200
O2912       O  0.39299419  0.00726284  0.47588410    -0.76100
O2913       O  0.43710661  0.98077204  0.49443817    -0.85600
O2914       O  0.43524142  0.01375031  0.46005676    -0.85300
O2915       O  0.48112261  0.96882657  0.47775245    -0.72100
O2916       O  0.47870844  0.99848611  0.44646402    -0.84200
Zr2917     Zr  0.48636944  0.03370217  0.51033783     2.26400
Zr2918     Zr  0.46989211  0.97392380  0.51578743     2.06300
Zr2919     Zr  0.46573596  0.03588590  0.45036934     2.10000
Zr2920     Zr  0.42414517  0.01809444  0.49791061     1.78800
O2921       O  0.49591567  0.04997976  0.42842101    -0.93000
O2922       O  0.40159522  0.99709695  0.52298254    -0.40800
O2923       O  0.45439447  0.04042552  0.48829716    -0.77400
O2924       O  0.45584965  0.01118538  0.52042957    -0.96100
O2925       O  0.50013716  0.99679946  0.50634678    -0.89400
O2926       O  0.49788653  0.02968202  0.47261933    -0.92300
C2927       C  0.39159049  0.99215977  0.46092961     1.01500
C2928       C  0.45670445  0.00055243  0.40594028     1.14400
C2929       C  0.45488391  0.92717576  0.48681772     1.05200
O2930       O  0.44236853  0.96069442  0.54137783    -0.94400
O2931       O  0.48081121  0.98806944  0.55243413    -0.90200
O2932       O  0.48576283  0.02493623  0.54972084    -0.83300
C2933       C  0.48463248  0.00725755  0.56092743     1.11800
O2934       O  0.52175569  0.96110937  0.44449441    -0.96400
Zr2935     Zr  0.51082888  0.99240902  0.46844095     1.88900
O2936       O  0.52677069  0.03567418  0.50896668    -0.73100
O2937       O  0.49973617  0.95052939  0.52955708    -0.52300
O2938       O  0.53721239  0.96670057  0.48471930    -0.97000
O2939       O  0.52791626  0.00569286  0.43483626    -0.54200
O2940       O  0.54168817  0.01287867  0.48230274    -0.73600
C2941       C  0.54327118  0.02734748  0.49787894     0.98800
O2942       O  0.49396226  0.06588887  0.53381601    -0.62400
O2943       O  0.43819941  0.06025905  0.43382504    -0.57200
O2944       O  0.47427622  0.07059164  0.50042435    -0.93900
O2945       O  0.46786568  0.07395956  0.46363744    -0.92300
O2946       O  0.40427068  0.05247767  0.49068605    -0.92700
O2947       O  0.41282915  0.04062012  0.53006425    -0.91400
C2948       C  0.46963666  0.08193904  0.48336807     1.17600
H2949       H  0.42359299  0.01715969  0.44980559     0.33600
H2950       H  0.45075348  0.01399135  0.53539824     0.44400
H2951       H  0.50909534  0.04008031  0.46908422     0.37900
H2952       H  0.48660036  0.95396348  0.47488619     0.34400
H2953       H  0.38651808  0.00355158  0.52165508     0.26200
H2954       H  0.49231216  0.93852022  0.53723757     0.32100
H2955       H  0.53826351  0.97150748  0.50042468     0.38100
H2956       H  0.41436457  0.06078381  0.48124159     0.32500
H2957       H  0.44414995  0.06337338  0.41898125     0.31400
H2958       H  0.49361593  0.04413178  0.41321673     0.33100
H2959       H  0.53120535  0.02130550  0.43815017     0.32000
H2960       H  0.42604411  0.04909154  0.53404613     0.36000
H2961       H  0.48140352  0.06739598  0.54433915     0.28800
H2962       H  0.42803608  0.94004914  0.43397642     0.33000
H2963       H  0.53748244  0.96329206  0.44079463     0.35900
H2964       H  0.42523246  0.05105345  0.43092966     0.28500
H2965       H  0.50678819  0.06163289  0.54297582     0.41300
H2966       H  0.43436647  0.97417072  0.54682876     0.31400
H2967       H  0.40060300  0.98221613  0.51606943     0.39000
H2968       H  0.51588828  0.00628176  0.42384298     0.30900
H2969       H  0.50640850  0.94335180  0.51616226     0.30900
H2970       H  0.45333179  0.93836686  0.42791538     0.31200
Zr2971     Zr  0.68234446  0.23126288  0.51547534     2.17500
O2972       O  0.65494139  0.22322907  0.54378280    -0.51200
O2973       O  0.67925284  0.19081734  0.51305133    -0.74400
O2974       O  0.64468034  0.23785333  0.50360393    -0.81200
O2975       O  0.72532290  0.24311477  0.56002491    -0.82900
O2976       O  0.64441281  0.24322798  0.46653233    -0.78500
O2977       O  0.68864377  0.23783876  0.55524650    -0.90200
O2978       O  0.70027874  0.17513823  0.48551732    -0.76100
O2979       O  0.68770786  0.21860415  0.47810161    -0.85600
O2980       O  0.71894947  0.21601521  0.51378054    -0.85300
O2981       O  0.67682942  0.26350763  0.49314941    -0.72100
O2982       O  0.70584264  0.26102225  0.52563966    -0.84200
Zr2983     Zr  0.74302996  0.26507061  0.46365067     2.26400
Zr2984     Zr  0.68265574  0.25038131  0.45560511     2.06300
Zr2985     Zr  0.74256776  0.24579967  0.52346906     2.10000
Zr2986     Zr  0.72469580  0.20425523  0.47613647     1.78800
O2987       O  0.75965110  0.26902089  0.55159222    -0.93000
O2988       O  0.71694397  0.18594542  0.44084970    -0.40800
O2989       O  0.74890922  0.23342096  0.48603611    -0.77400
O2990       O  0.71962359  0.23528440  0.45307507    -0.96100
O2991       O  0.70643664  0.28008467  0.46542012    -0.89400
O2992       O  0.73764301  0.27736116  0.50090657    -0.92300
C2993       C  0.68596003  0.17413049  0.50100261     1.01500
C2994       C  0.70559223  0.24098587  0.56756733     1.14400
C2995       C  0.63468970  0.24050612  0.48521108     1.05200
O2996       O  0.66728122  0.22422746  0.42907884    -0.94400
O2997       O  0.69775895  0.25810684  0.41868703    -0.90200
O2998       O  0.73232235  0.27065456  0.42521780    -0.83300
C2999       C  0.71610683  0.26625729  0.41229755     1.11800
O3000       O  0.67332577  0.30441621  0.53000272    -0.96400
Zr3001     Zr  0.70120102  0.29249229  0.50278463     1.88900
O3002       O  0.74612657  0.30510979  0.46389673    -0.73100
O3003       O  0.66075952  0.28094926  0.44125038    -0.52300
O3004       O  0.67272660  0.31483353  0.48511426    -0.97000
O3005       O  0.71672896  0.31284983  0.53401138    -0.54200
O3006       O  0.72101111  0.32256070  0.48668005    -0.73600
C3007       C  0.73712684  0.32257547  0.47290261     0.98800
O3008       O  0.77241092  0.25513033  0.43709211    -0.62400
O3009       O  0.76232097  0.21266090  0.53495459    -0.57200
O3010       O  0.77995470  0.26833079  0.47937130    -0.93900
O3011       O  0.78054939  0.25568544  0.51454675    -0.92300
O3012       O  0.74692347  0.17759424  0.49630262    -0.92700
O3013       O  0.75811537  0.19297540  0.45592523    -0.91400
C3014       C  0.78984479  0.26397387  0.49759026     1.17600
H3015       H  0.72067152  0.20396729  0.52383131     0.33600
H3016       H  0.72301234  0.23036837  0.43811243     0.44400
H3017       H  0.74816559  0.28839640  0.50499467     0.37900
H3018       H  0.66243654  0.27046182  0.49492638     0.34400
H3019       H  0.71969893  0.17008000  0.44341715     0.26200
H3020       H  0.65234148  0.27433730  0.42888647     0.32100
H3021       H  0.67668939  0.33028321  0.48838456     0.38100
H3022       H  0.74344351  0.16310344  0.48951193     0.32500
H3023       H  0.77028276  0.20726895  0.52147499     0.31400
H3024       H  0.76979583  0.25899709  0.55955794     0.33100
H3025       H  0.73153730  0.31726910  0.52906080     0.32000
H3026       H  0.76214174  0.20612437  0.44757462     0.36000
H3027       H  0.78271974  0.24519080  0.44495668     0.28800
H3028       H  0.64508867  0.21222065  0.53699617     0.33000
H3029       H  0.67333503  0.32072151  0.53006890     0.35900
H3030       H  0.77407317  0.21808041  0.54483578     0.28500
H3031       H  0.76556075  0.24525962  0.42596469     0.41300
H3032       H  0.66400214  0.21110538  0.43779912     0.31400
H3033       H  0.70073785  0.18743001  0.43922165     0.39000
H3034       H  0.71973350  0.30153569  0.54518931     0.30900
H3035       H  0.64951861  0.28449076  0.45281844     0.30900
H3036       H  0.64562068  0.23677077  0.54576177     0.31200
Zr3037     Zr  0.74909784  0.97576859  0.76813862     2.17500
O3038       O  0.77968050  0.97273679  0.79397916    -0.51200
O3039       O  0.74752777  0.93531331  0.76513028    -0.74400
O3040       O  0.73660618  0.97134278  0.80603876    -0.81200
O3041       O  0.78999930  0.98583810  0.72101822    -0.82900
O3042       O  0.70327623  0.98852252  0.81252975    -0.78500
O3043       O  0.78795397  0.97470093  0.75660338    -0.90200
O3044       O  0.71748241  0.92435951  0.74593348    -0.76100
O3045       O  0.71086115  0.96784933  0.76624987    -0.85600
O3046       O  0.74303988  0.96573900  0.73046650    -0.85300
O3047       O  0.72970340  0.00914986  0.78010733    -0.72100
O3048       O  0.75909657  0.00742026  0.74764766    -0.84200
Zr3049     Zr  0.69458579  0.02265324  0.71907756     2.26400
Zr3050     Zr  0.69099802  0.00119136  0.77692750     2.06300
Zr3051     Zr  0.75264579  0.99750391  0.70976245     2.10000
Zr3052     Zr  0.70457821  0.95797962  0.72865893     1.78800
O3053       O  0.77499038  0.02722697  0.69636788    -0.93000
O3054       O  0.67103994  0.94072025  0.74135381    -0.40800
O3055       O  0.71427343  0.98942282  0.70810997    -0.77400
O3056       O  0.68390301  0.99083520  0.73924894    -0.96100
O3057       O  0.70062946  0.03291795  0.75650413    -0.89400
O3058       O  0.73281293  0.03084618  0.72076971    -0.92300
C3059       C  0.73467326  0.92033588  0.75750378     1.01500
C3060       C  0.79881058  0.97858186  0.73882881     1.14400
C3061       C  0.72030245  0.97738111  0.81857902     1.05200
O3062       O  0.66475532  0.97488593  0.79050460    -0.94400
O3063       O  0.65345743  0.01380658  0.76785534    -0.90200
O3064       O  0.65649413  0.02605649  0.73278323    -0.83300
C3065       C  0.64528547  0.02230322  0.75035153     1.11800
O3066       O  0.76878652  0.04571906  0.78516277    -0.96400
Zr3067     Zr  0.73896749  0.04047850  0.75875831     1.88900
O3068       O  0.69900298  0.06277558  0.71944618    -0.73100
O3069       O  0.68051141  0.03033936  0.80354238    -0.52300
O3070       O  0.72509276  0.06028950  0.79165271    -0.97000
O3071       O  0.76894533  0.06134261  0.74300335    -0.54200
O3072       O  0.72265676  0.07472605  0.74576110    -0.73600
C3073       C  0.70879254  0.07818913  0.73027942     0.98800
O3074       O  0.66965877  0.03619885  0.69063789    -0.62400
O3075       O  0.76829055  0.97142919  0.68228626    -0.57200
O3076       O  0.70073518  0.01159719  0.68066687    -0.93900
O3077       O  0.73644602  0.00187274  0.67285717    -0.92300
O3078       O  0.71915129  0.93429380  0.69871138    -0.92700
O3079       O  0.67786082  0.95289353  0.69915398    -0.91400
C3080       C  0.71632417  0.00576749  0.66713771     1.17600
H3081       H  0.75207426  0.95305344  0.72594042     0.33600
H3082       H  0.66860831  0.98741314  0.73700713     0.44400
H3083       H  0.73635243  0.04265690  0.71107740     0.37900
H3084       H  0.73334846  0.01273561  0.79528311     0.34400
H3085       H  0.67128107  0.92597994  0.73398368     0.26200
H3086       H  0.67048598  0.02323419  0.81403963     0.32100
H3087       H  0.73110519  0.07524822  0.79070942     0.38100
H3088       H  0.72373337  0.94460004  0.68721041     0.32500
H3089       H  0.78271580  0.97748922  0.67813704     0.31400
H3090       H  0.78150312  0.02136381  0.68231784     0.33100
H3091       H  0.76300730  0.06758987  0.72922874     0.32000
H3092       H  0.67381554  0.96801419  0.69463871     0.36000
H3093       H  0.65807615  0.02504729  0.68911577     0.28800
H3094       H  0.77799304  0.95845552  0.80126930     0.33000
H3095       H  0.77137059  0.06175846  0.78574418     0.35900
H3096       H  0.77205379  0.95796754  0.69051030     0.28500
H3097       H  0.66199604  0.04935460  0.69729887     0.41300
H3098       H  0.67348065  0.96105372  0.79226738     0.31400
H3099       H  0.67371906  0.93769326  0.75712642     0.39000
H3100       H  0.77998418  0.05003384  0.73789597     0.30900
H3101       H  0.69406187  0.03306165  0.81215046     0.30900
H3102       H  0.77650351  0.98408426  0.80565813     0.31200
Zr3103     Zr  0.01732658  0.71825117  0.72575666     2.17500
O3104       O  0.04690011  0.69222097  0.71451353    -0.51200
O3105       O  0.01786743  0.71755092  0.68488693    -0.74400
O3106       O  0.00632883  0.67986825  0.72900727    -0.81200
O3107       O  0.05967994  0.76171407  0.74345707    -0.82900
O3108       O  0.96925808  0.67963117  0.73520030    -0.78500
O3109       O  0.05577353  0.72523962  0.73531195    -0.90200
O3110       O  0.99726762  0.74555610  0.67092830    -0.76100
O3111       O  0.98038169  0.72418656  0.71352275    -0.85600
O3112       O  0.01520903  0.75567958  0.71450140    -0.85300
O3113       O  0.99437981  0.71123025  0.75751830    -0.72100
O3114       O  0.02565692  0.74073715  0.75761190    -0.84200
Zr3115     Zr  0.96277679  0.77694711  0.76643852     2.26400
Zr3116     Zr  0.95724555  0.71752414  0.74496155     2.06300
Zr3117     Zr  0.02278694  0.77823126  0.74653885     2.10000
Zr3118     Zr  0.97811581  0.76179626  0.70292620     1.78800
O3119       O  0.04597478  0.79468285  0.77490134    -0.93000
O3120       O  0.94921045  0.74753475  0.67909395    -0.40800
O3121       O  0.98556202  0.78421514  0.73490913    -0.77400
O3122       O  0.95409291  0.75525911  0.73371901    -0.96100
O3123       O  0.96533794  0.73964332  0.77738394    -0.89400
O3124       O  0.00001877  0.77165663  0.77785348    -0.92300
C3125       C  0.01027831  0.72872020  0.66861309     1.01500
C3126       C  0.06748796  0.74204076  0.74021822     1.14400
C3127       C  0.98803584  0.66985691  0.73137977     1.05200
O3128       O  0.93365911  0.70287169  0.71593647    -0.94400
O3129       O  0.91923819  0.73030946  0.75302695    -0.90200
O3130       O  0.92429393  0.76452179  0.76794529    -0.83300
C3131       C  0.91188926  0.74843686  0.76203657     1.11800
O3132       O  0.02422421  0.70187818  0.79927100    -0.96400
Zr3133     Zr  0.00261324  0.73430077  0.78875717     1.88900
O3134       O  0.96603825  0.78196239  0.80684610    -0.73100
O3135       O  0.94241895  0.69500992  0.77402003    -0.52300
O3136       O  0.98106158  0.71028481  0.81177767    -0.97000
O3137       O  0.03738154  0.74250904  0.80693364    -0.54200
O3138       O  0.99152861  0.75760273  0.81980277    -0.73600
C3139       C  0.97778101  0.77376010  0.82247163     0.98800
O3140       O  0.93565619  0.80716015  0.77080930    -0.62400
O3141       O  0.03934533  0.79824616  0.71650617    -0.57200
O3142       O  0.97380228  0.81497411  0.76120686    -0.93900
O3143       O  0.01060507  0.81658800  0.75373942    -0.92300
O3144       O  0.99418892  0.79268500  0.68420379    -0.92700
O3145       O  0.95091985  0.79036361  0.69404380    -0.91400
C3146       C  0.99153487  0.82564821  0.75770685     1.17600
H3147       H  0.02567542  0.75832516  0.70283705     0.33600
H3148       H  0.93925031  0.75869429  0.72880470     0.44400
H3149       H  0.00420874  0.78197171  0.78936007     0.37900
H3150       H  0.99631114  0.69664451  0.76319467     0.34400
H3151       H  0.95373012  0.75131732  0.66392482     0.26200
H3152       H  0.93279762  0.68447550  0.76618786     0.32100
H3153       H  0.96905823  0.71981510  0.81819432     0.38100
H3154       H  0.98804123  0.79207165  0.66907930     0.32500
H3155       H  0.02783550  0.80912411  0.71217701     0.31400
H3156       H  0.05604821  0.80422972  0.76674487     0.33100
H3157       H  0.03329131  0.74869755  0.82172378     0.32000
H3158       H  0.95003251  0.79999337  0.70748281     0.36000
H3159       H  0.92554627  0.80575055  0.75807382     0.28800
H3160       H  0.04063737  0.68275526  0.70268044     0.33000
H3161       H  0.02389056  0.70197881  0.81564381     0.35900
H3162       H  0.05086299  0.80717318  0.72367907     0.28500
H3163       H  0.92665123  0.80377476  0.78394825     0.41300
H3164       H  0.92465777  0.71565306  0.71105740     0.31400
H3165       H  0.95112334  0.73131392  0.67949259     0.39000
H3166       H  0.04318470  0.75514406  0.79887518     0.30900
H3167       H  0.95514573  0.68591089  0.77897144     0.30900
H3168       H  0.04910288  0.68233986  0.72714226     0.31200
C3169       C  0.20518612  0.11804876  0.00065055    -0.16300
C3170       C  0.19478062  0.13822581  0.00245876    -0.31400
H3171       H  0.22048795  0.11579760  0.99136683     0.12800
H3172       H  0.17924371  0.13953704  0.01150784     0.13300
C3173       C  0.19458951  0.99076355  0.13890247    -0.16300
C3174       C  0.21218509  0.99643860  0.15127817    -0.31400
H3175       H  0.18152253  0.98127390  0.14609968     0.12800
H3176       H  0.22576607  0.00470114  0.14343122     0.13300
C3177       C  0.07245328  0.98463645  0.02172303    -0.16300
C3178       C  0.08844218  0.97751449  0.03579129    -0.31400
H3179       H  0.07592644  0.99865992  0.01156723     0.12800
H3180       H  0.08527768  0.96403056  0.04673013     0.13300
C3181       C  0.10979779  0.11260188  0.00179932    -0.16300
C3182       C  0.09277632  0.10528144  0.98970762    -0.31400
H3183       H  0.11094317  0.13013074  0.00569069     0.12800
H3184       H  0.09096194  0.08773135  0.98657115     0.13300
C3185       C  0.11698836  0.22246254  0.98292094    -0.16300
C3186       C  0.10415664  0.22959361  0.00040273    -0.31400
H3187       H  0.10946460  0.21314728  0.96952262     0.12800
H3188       H  0.11136874  0.23983100  0.01329595     0.13300
C3189       C  0.96450539  0.09880003  0.01060130    -0.16300
C3190       C  0.97286417  0.08168355  0.02219267    -0.31400
H3191       H  0.95037435  0.09690481  0.99985500     0.12800
H3192       H  0.98680867  0.08516206  0.03277579     0.13300
C3193       C  0.01746272  0.22726724  0.12224399    -0.16300
C3194       C  0.01823833  0.21639025  0.14168565    -0.31400
H3195       H  0.01284058  0.24463928  0.12205916     0.12800
H3196       H  0.02430963  0.19939581  0.14138798     0.13300
C3197       C  0.00448597  0.07490876  0.09389149    -0.16300
C3198       C  0.99294457  0.09383202  0.09211731    -0.31400
H3199       H  0.01514490  0.06904575  0.08038844     0.12800
H3200       H  0.98232294  0.09952378  0.10574978     0.13300
C3201       C  0.11830733  0.98679040  0.13514910    -0.16300
C3202       C  0.09807844  0.97889218  0.13206186    -0.31400
H3203       H  0.12249336  0.99258854  0.15172522     0.12800
H3204       H  0.09343075  0.97443449  0.11521912     0.13300
C3205       C  0.11411383  0.00872826  0.25850322    -0.16300
C3206       C  0.10295580  0.02814177  0.25725936    -0.31400
H3207       H  0.10574718  0.99348660  0.25474708     0.12800
H3208       H  0.11135152  0.04336883  0.26103217     0.13300
C3209       C  0.98790033  0.00131074  0.10534385    -0.16300
C3210       C  0.97963384  0.99146962  0.12317771    -0.31400
H3211       H  0.00119982  0.01262734  0.10761034     0.12800
H3212       H  0.96546964  0.98089767  0.12209346     0.13300
C3213       C  0.99771101  0.13003578  0.22995440    -0.16300
C3214       C  0.98212316  0.14276334  0.22041833    -0.31400
H3215       H  0.00798818  0.13704447  0.24286639     0.12800
H3216       H  0.97089289  0.13561479  0.20845415     0.13300
C3217       C  0.08512093  0.12076881  0.23403026    -0.16300
C3218       C  0.10714216  0.12137258  0.23467321    -0.31400
H3219       H  0.07595393  0.13596175  0.23084026     0.12800
H3220       H  0.11640198  0.10630686  0.23813032     0.13300
C3221       C  0.22194579  0.14082065  0.09304418    -0.16300
C3222       C  0.22608369  0.12060404  0.08462943    -0.31400
H3223       H  0.23432060  0.15323459  0.09091245     0.12800
H3224       H  0.24185378  0.11715005  0.07649913     0.13300
C3225       C  0.10757258  0.23282284  0.10022630    -0.16300
C3226       C  0.10906123  0.22519931  0.07929979    -0.31400
H3227       H  0.09151084  0.23834391  0.10662477     0.12800
H3228       H  0.12513455  0.21956532  0.07305073     0.13300
C3229       C  0.22338400  0.21105532  0.07881061    -0.16300
C3230       C  0.22101249  0.22465517  0.09672157    -0.31400
H3231       H  0.21852206  0.19403367  0.08039930     0.12800
H3232       H  0.22494043  0.24196386  0.09597065     0.13300
C3233       C  0.18987850  0.08438724  0.22183862    -0.16300
C3234       C  0.19233924  0.10450794  0.23145477    -0.31400
H3235       H  0.18363932  0.08340836  0.20502415     0.12800
H3236       H  0.19679580  0.10626399  0.24875375     0.13300
C3237       C  0.09533632  0.21858593  0.23640822    -0.16300
C3238       C  0.08465532  0.23811021  0.23340544    -0.31400
H3239       H  0.08675353  0.20535381  0.24430255     0.12800
H3240       H  0.09349515  0.25168726  0.22643495     0.13300
C3241       C  0.85626406  0.46592529  0.22728122    -0.16300
C3242       C  0.84385470  0.48426919  0.23116453    -0.31400
H3243       H  0.85100031  0.45376713  0.21506095     0.12800
H3244       H  0.84905051  0.49587321  0.24395213     0.13300
C3245       C  0.95881355  0.35686404  0.23880571    -0.16300
C3246       C  0.97770551  0.34613276  0.24426637    -0.31400
H3247       H  0.94586416  0.34811134  0.23020523     0.12800
H3248       H  0.99104783  0.35512983  0.25194481     0.13300
C3249       C  0.98302359  0.49012520  0.36164558    -0.16300
C3250       C  0.97286796  0.50543365  0.37468935    -0.31400
H3251       H  0.99705338  0.48094787  0.36817051     0.12800
H3252       H  0.95841055  0.51426403  0.36859028     0.13300
C3253       C  0.96242653  0.36077317  0.36890295    -0.16300
C3254       C  0.96699276  0.38189315  0.37364922    -0.31400
H3255       H  0.96176251  0.35507660  0.35175063     0.12800
H3256       H  0.96539230  0.38790991  0.39068711     0.13300
C3257       C  0.83106206  0.25969325  0.49364011    -0.16300
C3258       C  0.81273027  0.27176647  0.49949482    -0.31400
H3259       H  0.83068580  0.24183148  0.49287325     0.12800
H3260       H  0.81381334  0.28961561  0.49973961     0.13300
C3261       C  0.95970987  0.27689465  0.35545721    -0.16300
C3262       C  0.94918629  0.27752792  0.33568555    -0.31400
H3263       H  0.97709941  0.27225886  0.35617773     0.12800
H3264       H  0.93226977  0.28389645  0.33541110     0.13300
C3265       C  0.96609428  0.38478544  0.45737967    -0.16300
C3266       C  0.96078941  0.40015235  0.47328002    -0.31400
H3267       H  0.97714584  0.38881965  0.44395921     0.12800
H3268       H  0.95083012  0.39533583  0.48727409     0.13300
C3269       C  0.82692152  0.24336715  0.37923247    -0.16300
C3270       C  0.82432297  0.25182278  0.39975990    -0.31400
H3271       H  0.84248529  0.23500266  0.37493076     0.12800
H3272       H  0.80805859  0.25826356  0.40462149     0.13300
C3273       C  0.85938846  0.35016714  0.24406071    -0.16300
C3274       C  0.85873120  0.37214875  0.24226296    -0.31400
H3275       H  0.87555647  0.34225115  0.24572231     0.12800
H3276       H  0.84263691  0.38034782  0.24127112     0.13300
C3277       C  0.72195748  0.25907324  0.37112214    -0.16300
C3278       C  0.71916195  0.27289906  0.38903004    -0.31400
H3279       H  0.71666354  0.24214332  0.37149279     0.12800
H3280       H  0.72516053  0.28955744  0.38769995     0.13300
C3281       C  0.77654903  0.39575525  0.24920810    -0.16300
C3282       C  0.77411969  0.37635716  0.23807197    -0.31400
H3283       H  0.78256640  0.39550629  0.26611665     0.12800
H3284       H  0.76935444  0.37584562  0.22080033     0.13300
C3285       C  0.86583660  0.26198257  0.24329481    -0.16300
C3286       C  0.87912934  0.24570795  0.25085308    -0.31400
H3287       H  0.87234495  0.27378013  0.23188339     0.12800
H3288       H  0.87231907  0.23322353  0.26131201     0.13300
C3289       C  0.87984880  0.49775688  0.36880675    -0.16300
C3290       C  0.85917550  0.49986709  0.37657275    -0.31400
H3291       H  0.89065959  0.51158868  0.37132302     0.12800
H3292       H  0.85455419  0.51568110  0.38427801     0.13300
C3293       C  0.82180920  0.37626711  0.49750748    -0.16300
C3294       C  0.83304155  0.35731368  0.50007109    -0.31400
H3295       H  0.81338585  0.38358988  0.51188479     0.12800
H3296       H  0.83315805  0.35009619  0.51631720     0.13300
C3297       C  0.73896225  0.35372808  0.38996863    -0.16300
C3298       C  0.73004057  0.35259491  0.36989028    -0.31400
H3299       H  0.74403269  0.33843356  0.39769228     0.12800
H3300       H  0.72284544  0.36756119  0.36314757     0.13300
C3301       C  0.74041339  0.36455340  0.47235689    -0.16300
C3302       C  0.74699413  0.34354555  0.46657842    -0.31400
H3303       H  0.72583857  0.36776362  0.48255158     0.12800
H3304       H  0.76123000  0.34095063  0.45574662     0.13300
C3305       C  0.75776527  0.48678122  0.33962749    -0.16300
C3306       C  0.74098656  0.47904049  0.32700831    -0.31400
H3307       H  0.76989564  0.49733546  0.33231376     0.12800
H3308       H  0.72819967  0.46952740  0.33467233     0.13300
C3309       C  0.88786267  0.48597880  0.43549061    -0.16300
C3310       C  0.86901019  0.49834265  0.43872583    -0.31400
H3311       H  0.88663061  0.47020931  0.42670999     0.12800
H3312       H  0.86935162  0.51449740  0.44677110     0.13300
C3313       C  0.71993953  0.73995095  0.10210629    -0.16300
C3314       C  0.70737915  0.73458516  0.08438943    -0.31400
H3315       H  0.73635078  0.74642271  0.10005162     0.12800
H3316       H  0.69156266  0.72705470  0.08696115     0.13300
C3317       C  0.70480332  0.58834270  0.20449174    -0.16300
C3318       C  0.70612068  0.60684221  0.21739649    -0.31400
H3319       H  0.69782721  0.58954701  0.18803169     0.12800
H3320       H  0.71158307  0.60602643  0.23442621     0.13300
C3321       C  0.58199876  0.70336461  0.22955162    -0.16300
C3322       C  0.60119163  0.70653622  0.24044048    -0.31400
H3323       H  0.58270889  0.69736806  0.21246545     0.12800
H3324       H  0.60137410  0.71130664  0.25784539     0.13300
C3325       C  0.62003754  0.76124427  0.09255386    -0.16300
C3326       C  0.62979746  0.76450734  0.11215249    -0.31400
H3327       H  0.61815678  0.77515825  0.08173331     0.12800
H3328       H  0.63495578  0.78099225  0.11672571     0.13300
C3329       C  0.60853927  0.76235594  0.00456112    -0.16300
C3330       C  0.62466725  0.75223962  0.99222482    -0.31400
H3331       H  0.61106027  0.77860744  0.01183732     0.12800
H3332       H  0.62138951  0.73562422  0.98612379     0.13300
C3333       C  0.49531815  0.71172684  0.14180828    -0.16300
C3334       C  0.49878500  0.72960223  0.15514134    -0.31400
H3335       H  0.48647101  0.69782223  0.14806700     0.12800
H3336       H  0.50642642  0.74387242  0.14812138     0.13300
C3337       C  0.50062551  0.60992662  0.03146976    -0.16300
C3338       C  0.50698652  0.59649955  0.01413191    -0.31400
H3339       H  0.49036020  0.60355196  0.04449649     0.12800
H3340       H  0.51601216  0.60359845  0.00058401     0.13300
C3341       C  0.62313259  0.63448561  0.98876845    -0.16300
C3342       C  0.62519527  0.65620658  0.99217424    -0.31400
H3343       H  0.60714907  0.62820603  0.98399706     0.12800
H3344       H  0.64148476  0.66243803  0.99579199     0.13300
C3345       C  0.73429325  0.64274929  0.08184565    -0.16300
C3346       C  0.72260325  0.66171895  0.08290900    -0.31400
H3347       H  0.74338702  0.63780230  0.09643574     0.12800
H3348       H  0.71488369  0.66773366  0.06795366     0.13300
C3349       C  0.73209784  0.63521551  0.99377992    -0.16300
C3350       C  0.72369026  0.65373568  0.00411713    -0.31400
H3351       H  0.74597139  0.63569698  0.98239869     0.12800
H3352       H  0.71013489  0.65179589  0.01570457     0.13300
C3353       C  0.72309856  0.50490544  0.11177300    -0.16300
C3354       C  0.74181334  0.50932322  0.12300327    -0.31400
H3355       H  0.71101594  0.49424549  0.11903649     0.12800
H3356       H  0.75450748  0.51901952  0.11542917     0.13300
C3357       C  0.58511706  0.51243048  0.03050136    -0.16300
C3358       C  0.60406160  0.50106117  0.02546107    -0.31400
H3359       H  0.58636569  0.52870294  0.03826859     0.12800
H3360       H  0.60399394  0.48433712  0.01872869     0.13300
C3361       C  0.49651549  0.62215551  0.12903089    -0.16300
C3362       C  0.50372977  0.61819881  0.10826990    -0.31400
H3363       H  0.49372774  0.63912138  0.13475176     0.12800
H3364       H  0.50884098  0.60155407  0.10315393     0.13300
C3365       C  0.61697998  0.50367158  0.11866506    -0.16300
C3366       C  0.63807239  0.50992920  0.11871184    -0.31400
H3367       H  0.60956383  0.49936435  0.10287682     0.12800
H3368       H  0.64470743  0.51526302  0.13458097     0.13300
C3369       C  0.58970289  0.63782930  0.22942558    -0.16300
C3370       C  0.61154534  0.63614731  0.23222054    -0.31400
H3371       H  0.58281521  0.65308711  0.22300832     0.12800
H3372       H  0.61887451  0.62164796  0.23971250     0.13300
C3373       C  0.62340231  0.50039300  0.22811392    -0.16300
C3374       C  0.63993601  0.49512365  0.21409768    -0.31400
H3375       H  0.62713622  0.50345533  0.24545435     0.12800
H3376       H  0.63629377  0.49414638  0.19650911     0.13300
C3377       C  0.48787636  0.61851070  0.24419826    -0.16300
C3378       C  0.49983957  0.63095787  0.25806888    -0.31400
H3379       H  0.47299777  0.62575527  0.23718547     0.12800
H3380       H  0.51531279  0.62433379  0.26441940     0.13300
C3381       C  0.52675159  0.48517364  0.11242183    -0.16300
C3382       C  0.50665090  0.48480022  0.10297216    -0.31400
H3383       H  0.54116368  0.47931292  0.10306042     0.12800
H3384       H  0.49235332  0.49046835  0.11263566     0.13300
C3385       C  0.00576443  0.63245731  0.73420281    -0.16300
C3386       C  0.98844224  0.64558168  0.72837484    -0.31400
H3387       H  0.01852002  0.63904744  0.74484003     0.12800
H3388       H  0.97511275  0.63870227  0.71868368     0.13300
C3389       C  0.11674015  0.53084283  0.73173294    -0.16300
C3390       C  0.12956254  0.51242651  0.72849805    -0.31400
H3391       H  0.12286923  0.54450760  0.74164741     0.12800
H3392       H  0.12272683  0.49836317  0.71972366     0.13300
C3393       C  0.00383928  0.49529686  0.57869434    -0.16300
C3394       C  0.99035110  0.50102181  0.59601259    -0.31400
H3395       H  0.02153104  0.49641312  0.58124563     0.12800
H3396       H  0.97254638  0.50082443  0.59421236     0.13300
C3397       C  0.98880790  0.60283790  0.57565710    -0.16300
C3398       C  0.98268407  0.60530555  0.59690792    -0.31400
H3399       H  0.99493879  0.58676908  0.56984531     0.12800
H3400       H  0.97530273  0.62094003  0.60261453     0.13300
C3401       C  0.01618698  0.72069654  0.64579658    -0.16300
C3402       C  0.01506442  0.73308706  0.62744781    -0.31400
H3403       H  0.02145755  0.70350756  0.64399377     0.12800
H3404       H  0.01156599  0.75067797  0.62895934     0.13300
C3405       C  0.14273324  0.72664761  0.54078162    -0.16300
C3406       C  0.12517992  0.74014725  0.53627705    -0.31400
H3407       H  0.13971507  0.71047016  0.54735426     0.12800
H3408       H  0.12734079  0.75661573  0.53015736     0.13300
C3409       C  0.99349511  0.61869243  0.47661934    -0.16300
C3410       C  0.98589256  0.60188604  0.48857588    -0.31400
H3411       H  0.99742237  0.61633773  0.45917917     0.12800
H3412       H  0.98290339  0.60518754  0.50613922     0.13300
C3413       C  0.11685906  0.61724861  0.47620358    -0.16300
C3414       C  0.09505688  0.61424495  0.47800394    -0.31400
H3415       H  0.12239419  0.63289161  0.47013470     0.12800
H3416       H  0.08981575  0.59734980  0.47963975     0.13300
C3417       C  0.09077946  0.50977134  0.59332643    -0.16300
C3418       C  0.09072767  0.52320769  0.57604395    -0.31400
H3419       H  0.10636963  0.50229382  0.59841819     0.12800
H3420       H  0.07506842  0.52922156  0.56953497     0.13300
C3421       C  0.22306614  0.54023523  0.63454782    -0.16300
C3422       C  0.21007181  0.54011761  0.65287899    -0.31400
H3423       H  0.24042467  0.53548263  0.63527588     0.12800
H3424       H  0.19325113  0.54665419  0.65184880     0.13300
C3425       C  0.25937794  0.64470778  0.51119012    -0.16300
C3426       C  0.25690319  0.62561955  0.52168190    -0.31400
H3427       H  0.27592346  0.64743315  0.50494996     0.12800
H3428       H  0.27186369  0.61566029  0.52377691     0.13300
C3429       C  0.10162862  0.52204756  0.49865274    -0.16300
C3430       C  0.08090928  0.52768719  0.50607925    -0.31400
H3431       H  0.10431856  0.50890585  0.48638459     0.12800
H3432       H  0.07907279  0.54023038  0.51913099     0.13300
C3433       C  0.11234510  0.74235049  0.61668166    -0.16300
C3434       C  0.09327907  0.73248442  0.62107453    -0.31400
H3435       H  0.11648881  0.74570677  0.59959380     0.12800
H3436       H  0.09041652  0.72647546  0.63760962     0.13300
C3437       C  0.23531600  0.66453226  0.60046645    -0.16300
C3438       C  0.23901681  0.64445665  0.59115278    -0.31400
H3439       H  0.24737449  0.67708853  0.59751393     0.12800
H3440       H  0.25434740  0.64181978  0.58195365     0.13300
C3441       C  0.11909840  0.62211633  0.73016772    -0.16300
C3442       C  0.09692097  0.62296614  0.73046077    -0.31400
H3443       H  0.12726761  0.60602223  0.72859284     0.12800
H3444       H  0.08887927  0.63916053  0.73135663     0.13300
C3445       C  0.09167265  0.73896669  0.74126778    -0.16300
C3446       C  0.10186414  0.71915109  0.74354023    -0.31400
H3447       H  0.10139265  0.75331928  0.73786992     0.12800
H3448       H  0.09233878  0.70491007  0.74777643     0.13300
C3449       C  0.21629111  0.61882021  0.73622635    -0.16300
C3450       C  0.23439012  0.60670552  0.73006110    -0.31400
H3451       H  0.20483976  0.61216938  0.74809871     0.12800
H3452       H  0.24665068  0.61342075  0.71911265     0.13300
C3453       C  0.22515551  0.75449902  0.62167383    -0.16300
C3454       C  0.23184444  0.73871268  0.60716302    -0.31400
H3455       H  0.22112737  0.77092280  0.61596761     0.12800
H3456       H  0.23349335  0.72189232  0.61284142     0.13300
C3457       C  0.45804940  0.85201659  0.24752065    -0.16300
C3458       C  0.46222013  0.83501312  0.26136203    -0.31400
H3459       H  0.46069964  0.85026063  0.22980224     0.12800
H3460       H  0.45991347  0.83873218  0.27893819     0.13300
C3461       C  0.32994383  0.98706957  0.27164974    -0.16300
C3462       C  0.31793748  0.98061075  0.25397962    -0.31400
H3463       H  0.32187121  0.99581110  0.28546021     0.12800
H3464       H  0.32626138  0.97283463  0.23975947     0.13300
C3465       C  0.44313017  0.00239800  0.36708689    -0.16300
C3466       C  0.45799509  0.99527664  0.38202870    -0.31400
H3467       H  0.43218714  0.01633586  0.37123711     0.12800
H3468       H  0.46816190  0.98075075  0.37792412     0.13300
C3469       C  0.33760376  0.99416205  0.37870220    -0.16300
C3470       C  0.34034117  0.99364964  0.35657353    -0.31400
H3471       H  0.35249760  0.99543422  0.38852178     0.12800
H3472       H  0.32541850  0.99315235  0.34672830     0.13300
C3473       C  0.26579104  0.83949239  0.50596458    -0.16300
C3474       C  0.25203289  0.85764508  0.50644297    -0.31400
H3475       H  0.28236516  0.84118757  0.49935337     0.12800
H3476       H  0.23526407  0.85671679  0.51268808     0.13300
C3477       C  0.21737694  0.97550069  0.35663649    -0.16300
C3478       C  0.23302744  0.98520984  0.36893570    -0.31400
H3479       H  0.20636179  0.96388163  0.36405717     0.12800
H3480       H  0.24328835  0.99752551  0.36155112     0.13300
C3481       C  0.37016264  0.98769914  0.45076730    -0.16300
C3482       C  0.35059014  0.99803761  0.45555803    -0.31400
H3483       H  0.37056273  0.97375499  0.43913539     0.12800
H3484       H  0.34953397  0.01256532  0.46635661     0.13300
C3485       C  0.46990787  0.86894902  0.37304173    -0.16300
C3486       C  0.46427234  0.86239146  0.35254182    -0.31400
H3487       H  0.47064411  0.88641625  0.37722513     0.12800
H3488       H  0.46179189  0.84498834  0.34892981     0.13300
C3489       C  0.37445706  0.88070913  0.48234624    -0.16300
C3490       C  0.35366309  0.87385135  0.48555760    -0.31400
H3491       H  0.37740015  0.89765494  0.47800348     0.12800
H3492       H  0.35047139  0.85665445  0.48834769     0.13300
C3493       C  0.46745667  0.73195227  0.37583340    -0.16300
C3494       C  0.48167370  0.73912153  0.36048584    -0.31400
H3495       H  0.45622522  0.71889078  0.37146730     0.12800
H3496       H  0.49208872  0.75290471  0.36461499     0.13300
C3497       C  0.33604883  0.75809038  0.46784433    -0.16300
C3498       C  0.35521968  0.74679396  0.47110020    -0.31400
H3499       H  0.33648365  0.77351154  0.45906965     0.12800
H3500       H  0.35559787  0.73076068  0.47865475     0.13300
C3501       C  0.46412782  0.88607518  0.49223610    -0.16300
C3502       C  0.45220683  0.90300917  0.48350398    -0.31400
H3503       H  0.47510757  0.88866420  0.50611239     0.12800
H3504       H  0.44115820  0.89897441  0.47000707     0.13300
C3505       C  0.34923302  0.73769304  0.39031415    -0.16300
C3506       C  0.37083805  0.73684937  0.38512053    -0.31400
H3507       H  0.34533823  0.73993765  0.40782729     0.12800
H3508       H  0.37500001  0.73546465  0.36763503     0.13300
C3509       C  0.22222988  0.85165085  0.38848389    -0.16300
C3510       C  0.23051572  0.84996206  0.40891445    -0.31400
H3511       H  0.21640212  0.86765867  0.38295812     0.12800
H3512       H  0.23700176  0.83402939  0.41406290     0.13300
C3513       C  0.32462196  0.86771925  0.28011266    -0.16300
C3514       C  0.34380756  0.85926432  0.27178355    -0.31400
H3515       H  0.32291568  0.88516175  0.28427327     0.12800
H3516       H  0.34667740  0.84160953  0.27001466     0.13300
C3517       C  0.38767741  0.75589002  0.29492446    -0.16300
C3518       C  0.36958512  0.74328730  0.29438249    -0.31400
H3519       H  0.38644274  0.77236931  0.30235998     0.12800
H3520       H  0.37054152  0.72623001  0.28858111     0.13300
C3521       C  0.26795527  0.73180177  0.40475255    -0.16300
C3522       C  0.25492215  0.72564088  0.38787726    -0.31400
H3523       H  0.28344813  0.73966589  0.40128962     0.12800
H3524       H  0.23831543  0.72022976  0.39130003     0.13300
C3525       C  0.23891419  0.86956085  0.27330980    -0.16300
C3526       C  0.24445294  0.88987084  0.28154420    -0.31400
H3527       H  0.22982756  0.86790211  0.25797776     0.12800
H3528       H  0.25466829  0.89065299  0.29624272     0.13300
C3529       C  0.62190441  0.02994427  0.75010451    -0.16300
C3530       C  0.60502950  0.01698150  0.74377528    -0.31400
H3531       H  0.61982276  0.04762124  0.74811643     0.12800
H3532       H  0.60648886  0.99921765  0.74510983     0.13300
C3533       C  0.46661810  0.13634974  0.69832319    -0.16300
C3534       C  0.47571214  0.15557473  0.69269627    -0.31400
H3535       H  0.45156196  0.13609824  0.70809682     0.12800
H3536       H  0.49090101  0.15424152  0.68298264     0.13300
C3537       C  0.48225494  0.02613618  0.59814580    -0.16300
C3538       C  0.48924088  0.00892761  0.58501288    -0.31400
H3539       H  0.47021156  0.03792016  0.59187221     0.12800
H3540       H  0.50026621  0.99642297  0.59169775     0.13300
C3541       C  0.62406278  0.99233253  0.62905194    -0.16300
C3542       C  0.61464846  0.99749906  0.64868708    -0.31400
H3543       H  0.63148195  0.97598800  0.62665904     0.12800
H3544       H  0.61516095  0.98514321  0.66136349     0.13300
C3545       C  0.71973172  0.00922701  0.62584624    -0.16300
C3546       C  0.70894888  0.00289665  0.64408612    -0.31400
H3547       H  0.73732442  0.01217222  0.62612091     0.12800
H3548       H  0.69132188  0.00011303  0.64264406     0.13300
C3549       C  0.67754095  0.15229981  0.50673866    -0.16300
C3550       C  0.68205447  0.13301678  0.49560285    -0.31400
H3551       H  0.66884925  0.15175340  0.52250020     0.12800
H3552       H  0.68975910  0.13259482  0.47934959     0.13300
C3553       C  0.56547880  0.03407626  0.50482293    -0.16300
C3554       C  0.58448396  0.02908260  0.49375171    -0.31400
H3555       H  0.56639776  0.04220912  0.52100193     0.12800
H3556       H  0.58445494  0.02217239  0.47703358     0.13300
C3557       C  0.60112333  0.11363393  0.74015869    -0.16300
C3558       C  0.62262867  0.11249536  0.73488248    -0.31400
H3559       H  0.59400180  0.12920196  0.74638081     0.12800
H3560       H  0.63003511  0.09648592  0.73044158     0.13300
C3561       C  0.71360297  0.09993262  0.63140729    -0.16300
C3562       C  0.71967909  0.12085796  0.62956703    -0.31400
H3563       H  0.71011282  0.09388483  0.64781648     0.12800
H3564       H  0.72504657  0.12656915  0.61355461     0.13300
C3565       C  0.70972617  0.12030677  0.73316805    -0.16300
C3566       C  0.70384887  0.10100746  0.72315216    -0.31400
H3567       H  0.71782990  0.12052448  0.74911987     0.12800
H3568       H  0.69449932  0.10176493  0.70790250     0.13300
C3569       C  0.68367615  0.24530831  0.60329587    -0.16300
C3570       C  0.70288733  0.24113510  0.59211876    -0.31400
H3571       H  0.66911119  0.25073438  0.59436951     0.12800
H3572       H  0.71750760  0.23647271  0.60138333     0.13300
C3573       C  0.58489224  0.25346913  0.71932924    -0.16300
C3574       C  0.56834434  0.25855583  0.70550205    -0.31400
H3575       H  0.58117370  0.25295075  0.73690567     0.12800
H3576       H  0.57123034  0.25595338  0.68785823     0.13300
C3577       C  0.47544979  0.11616331  0.59405955    -0.16300
C3578       C  0.47647570  0.12139544  0.61569112    -0.31400
H3579       H  0.47788076  0.09896771  0.58893304     0.12800
H3580       H  0.47554431  0.13863468  0.62092678     0.13300
C3581       C  0.59052750  0.24492771  0.60226804    -0.16300
C3582       C  0.58962337  0.24555717  0.62438717    -0.31400
H3583       H  0.60670336  0.24494190  0.59440529     0.12800
H3584       H  0.57346533  0.24533501  0.63225970     0.13300
C3585       C  0.56896954  0.10498531  0.48869553    -0.16300
C3586       C  0.58789826  0.09325453  0.48848074    -0.31400
H3587       H  0.55819960  0.10294354  0.47453377     0.12800
H3588       H  0.59119533  0.08337079  0.47353959     0.13300
C3589       C  0.61046483  0.23900814  0.48590217    -0.16300
C3590       C  0.59892017  0.24546315  0.50420466    -0.31400
H3591       H  0.60298638  0.22832992  0.47353405     0.12800
H3592       H  0.60606730  0.25705751  0.51593925     0.13300
C3593       C  0.49806579  0.23804105  0.63429616    -0.16300
C3594       C  0.49813662  0.25076879  0.61626836    -0.31400
H3595       H  0.50342112  0.22086462  0.63219237     0.12800
H3596       H  0.49478878  0.26839927  0.61732749     0.13300
C3597       C  0.47802348  0.12071330  0.47809819    -0.16300
C3598       C  0.46597257  0.10553186  0.48794250    -0.31400
H3599       H  0.48546378  0.11731874  0.46195842     0.12800
H3600       H  0.45945495  0.10955499  0.50440099     0.13300
C3601       C  0.43899461  0.25957856  0.83610827    -0.16300
C3602       C  0.44325029  0.24649630  0.85354626    -0.31400
H3603       H  0.43065270  0.27540836  0.83937411     0.12800
H3604       H  0.45068827  0.23014059  0.85142960     0.13300
C3605       C  0.33470514  0.24728750  0.95577404    -0.16300
C3606       C  0.32211775  0.25056702  0.97431597    -0.31400
H3607       H  0.32791893  0.23878994  0.94144947     0.12800
H3608       H  0.32967799  0.25795890  0.98885849     0.13300
C3609       C  0.46243072  0.37771529  0.99463715    -0.16300
C3610       C  0.45251909  0.39813190  0.99325550    -0.31400
H3611       H  0.47806657  0.37546499  0.00303346     0.12800
H3612       H  0.43679666  0.39934940  0.98475717     0.13300
C3613       C  0.33936875  0.24522689  0.86329206    -0.16300
C3614       C  0.36085659  0.24947236  0.86085082    -0.31400
H3615       H  0.33363441  0.24199539  0.87993303     0.12800
H3616       H  0.36626301  0.25373340  0.84434472     0.13300
C3617       C  0.36716020  0.25001799  0.75177550    -0.16300
C3618       C  0.35550861  0.24578455  0.77017562    -0.31400
H3619       H  0.36012193  0.26174997  0.74034032     0.12800
H3620       H  0.36223748  0.23444862  0.78215730     0.13300
C3621       C  0.22541131  0.40520177  0.76807467    -0.16300
C3622       C  0.23273785  0.38771831  0.75540632    -0.31400
H3623       H  0.22160600  0.40272776  0.78539275     0.12800
H3624       H  0.23634202  0.38962806  0.73796737     0.13300
C3625       C  0.23984490  0.24288120  0.86619104    -0.16300
C3626       C  0.22100724  0.24888030  0.87722651    -0.31400
H3627       H  0.25291171  0.23425764  0.87495848     0.12800
H3628       H  0.20739724  0.25656538  0.86843656     0.13300
C3629       C  0.47330544  0.39866386  0.89697567    -0.16300
C3630       C  0.47660682  0.37711894  0.89272452    -0.31400
H3631       H  0.46735586  0.40388919  0.91331050     0.12800
H3632       H  0.48383043  0.37181504  0.87692025     0.13300
C3633       C  0.35488366  0.38685732  0.76879832    -0.16300
C3634       C  0.33397697  0.38960761  0.77594969    -0.31400
H3635       H  0.36032290  0.37172562  0.76028071     0.12800
H3636       H  0.32930739  0.40489840  0.78472748     0.13300
C3637       C  0.44502688  0.36463429  0.76176526    -0.16300
C3638       C  0.46275285  0.35108346  0.76524029    -0.31400
H3639       H  0.43152061  0.35890836  0.75158753     0.12800
H3640       H  0.47672467  0.35760089  0.77423289     0.13300
C3641       C  0.34574832  0.47876447  0.76164404    -0.16300
C3642       C  0.33397108  0.49773382  0.76587085    -0.31400
H3643       H  0.33840819  0.46564592  0.75186778     0.12800
H3644       H  0.34181654  0.51127138  0.77457911     0.13300
C3645       C  0.48015886  0.50638033  0.88532366    -0.16300
C3646       C  0.48964287  0.49489106  0.90167636    -0.31400
H3647       H  0.47454474  0.52328386  0.88844834     0.12800
H3648       H  0.49424914  0.47777829  0.89778901     0.13300
C3649       C  0.35665326  0.50659568  0.89845169    -0.16300
C3650       C  0.37849812  0.50309487  0.89985112    -0.31400
H3651       H  0.34976983  0.51303753  0.88330347     0.12800
H3652       H  0.38497983  0.49863696  0.91592359     0.13300
C3653       C  0.25357772  0.35905585  0.89232467    -0.16300
C3654       C  0.23808812  0.36485549  0.87757940    -0.31400
H3655       H  0.26146753  0.34278776  0.89135093     0.12800
H3656       H  0.23036622  0.38119021  0.87834741     0.13300
C3657       C  0.34905491  0.37256823  0.00138983    -0.16300
C3658       C  0.36997180  0.37714720  0.99590672    -0.31400
H3659       H  0.34441213  0.35548980  0.00292897     0.12800
H3660       H  0.37432348  0.39421820  0.99355673     0.13300
C3661       C  0.26518692  0.48454344  0.84642841    -0.16300
C3662       C  0.26423148  0.49624628  0.86596768    -0.31400
H3663       H  0.27238646  0.46797672  0.84639274     0.12800
H3664       H  0.25868080  0.51337526  0.86668411     0.13300
C3665       C  0.23798524  0.35637493  0.97323790    -0.16300
C3666       C  0.24528619  0.33726368  0.96284914    -0.31400
H3667       H  0.22325602  0.35670457  0.98354129     0.12800
H3668       H  0.25940431  0.33784957  0.95173123     0.13300
C3669       C  0.38490857  0.48659272  0.97054973    -0.16300
C3670       C  0.36639517  0.49960021  0.97341710    -0.31400
H3671       H  0.38291565  0.47022372  0.96338737     0.12800
H3672       H  0.36735714  0.51654708  0.97935744     0.13300
C3673       C  0.98510369  0.77452222  0.86277116    -0.16300
C3674       C  0.97483887  0.78316893  0.84511229    -0.31400
H3675       H  0.99720530  0.76116611  0.86048992     0.12800
H3676       H  0.96180265  0.79559822  0.84774941     0.13300
C3677       C  0.84319153  0.74225984  0.97081051    -0.16300
C3678       C  0.82597480  0.74778925  0.95766325    -0.31400
H3679       H  0.84042743  0.73662848  0.98747230     0.12800
H3680       H  0.82923460  0.75498434  0.94181623     0.13300
C3681       C  0.96959292  0.86489119  0.98426161    -0.16300
C3682       C  0.97982455  0.88015682  0.97255590    -0.31400
H3683       H  0.96416192  0.86922603  0.00101281     0.12800
H3684       H  0.98308649  0.87707024  0.95505902     0.13300
C3685       C  0.97179286  0.86271224  0.85887156    -0.16300
C3686       C  0.97296893  0.86528327  0.88096027    -0.31400
H3687       H  0.97133637  0.84580577  0.85252213     0.12800
H3688       H  0.97279910  0.88195858  0.88789072     0.13300
C3689       C  0.83849384  0.98138173  0.75060371    -0.16300
C3690       C  0.82256460  0.97180412  0.73825486    -0.31400
H3691       H  0.83532868  0.99742450  0.75845151     0.12800
H3692       H  0.82624873  0.95604792  0.73000178     0.13300
C3693       C  0.99124122  0.86407286  0.77338053    -0.16300
C3694       C  0.98861592  0.84982779  0.75608081    -0.31400
H3695       H  0.00098345  0.85893193  0.78744766     0.12800
H3696       H  0.97823612  0.85487410  0.74244324     0.13300
C3697       C  0.94829121  0.95550075  0.90411303    -0.16300
C3698       C  0.95969478  0.95671320  0.88500541    -0.31400
H3699       H  0.93155142  0.94945897  0.90348449     0.12800
H3700       H  0.97702087  0.96087856  0.88513251     0.13300
C3701       C  0.83211962  0.86099776  0.97610001    -0.16300
C3702       C  0.83003989  0.84008223  0.96870422    -0.31400
H3703       H  0.84575591  0.86547481  0.98674815     0.12800
H3704       H  0.81565058  0.83605764  0.95892006     0.13300
C3705       C  0.82710193  0.98139162  0.82318746    -0.16300
C3706       C  0.81169027  0.98477810  0.83892725    -0.31400
H3707       H  0.82669705  0.99245305  0.80934321     0.12800
H3708       H  0.79992211  0.99830473  0.83671006     0.13300
C3709       C  0.72475425  0.98345502  0.85870429    -0.16300
C3710       C  0.72119990  0.96988034  0.84125067    -0.31400
H3711       H  0.72475009  0.00118866  0.85675993     0.12800
H3712       H  0.72227865  0.95214730  0.84303039     0.13300
C3713       C  0.75355124  0.86442882  0.98430403    -0.16300
C3714       C  0.73356444  0.85531541  0.98220091    -0.31400
H3715       H  0.76787294  0.85418283  0.98825112     0.12800
H3716       H  0.71914029  0.86577535  0.97919855     0.13300
C3717       C  0.86119036  0.96485473  0.97562235    -0.16300
C3718       C  0.87444537  0.98130798  0.96980346    -0.31400
H3719       H  0.86683315  0.95336465  0.98800198     0.12800
H3720       H  0.86866429  0.99371748  0.95842573     0.13300
C3721       C  0.86444179  0.84987334  0.73349260    -0.16300
C3722       C  0.85934749  0.87100204  0.72942571    -0.31400
H3723       H  0.88144835  0.84540460  0.73740105     0.12800
H3724       H  0.84225305  0.87563599  0.72616519     0.13300
C3725       C  0.86407626  0.75239258  0.84103228    -0.16300
C3726       C  0.85753902  0.74736105  0.86159811    -0.31400
H3727       H  0.88132390  0.75573868  0.83781718     0.12800
H3728       H  0.84014324  0.74528169  0.86520671     0.13300
C3729       C  0.72778657  0.87291370  0.83638903    -0.16300
C3730       C  0.72381419  0.87313787  0.85812510    -0.31400
H3731       H  0.73038969  0.88856615  0.82855909     0.12800
H3732       H  0.72089577  0.85755356  0.86600798     0.13300
C3733       C  0.74149839  0.89710580  0.76154533    -0.16300
C3734       C  0.72941305  0.87870369  0.75836542    -0.31400
H3735       H  0.75840233  0.89501188  0.76719981     0.12800
H3736       H  0.71197523  0.87975318  0.75442784     0.13300
C3737       C  0.87022723  0.74348995  0.75508835    -0.16300
C3738       C  0.88773805  0.75262391  0.76574191    -0.31400
H3739       H  0.87222523  0.72874550  0.74471405     0.12800
H3740       H  0.88429290  0.76701193  0.77633726     0.13300
C3741       C  0.74073492  0.78489130  0.88380499    -0.16300
C3742       C  0.72923865  0.78147784  0.86488460    -0.31400
H3743       H  0.75650369  0.79299236  0.88253507     0.12800
H3744       H  0.71288801  0.77457761  0.86506871     0.13300
loop_ 
_geom_bond_atom_site_label_1 
_geom_bond_atom_site_label_2 
_geom_bond_distance 
_geom_bond_site_symmetry_2 
_ccdc_geom_bond_type 
Zr1           O2   2.435       .  S
Zr1           O3   2.425       .  S
Zr1           O4   2.501       .  S
Zr1           O7   2.501       .  S
Zr1           O9   2.372       .  S
Zr1          O10   2.383       .  S
Zr1          O11   2.445       .  S
Zr1          O12   2.439       .  S
O2           H58   0.990       .  S
O2           H66   0.990       .  S
O3           C23   1.281       .  A
O4           C25   1.296       .  A
O5          Zr15   2.404       .  S
O5           C24   1.279       .  A
O6          Zr14   2.391       .  S
O6           C25   1.277       .  A
O7           C24   1.297       .  A
O8          Zr16   2.423       .  S
O8           C23   1.283       .  A
O9          Zr14   2.376       .  S
O9          Zr16   2.352       .  S
O10         Zr15   2.370       .  S
O10         Zr16   2.353       .  S
O10          H45   0.961       .  S
O11         Zr14   2.387       .  S
O11         Zr31   2.436       .  S
O11          H48   0.966       .  S
O12         Zr15   2.388       .  S
O12         Zr31   2.456       .  S
Zr13         O38   2.435       .  S
Zr13         O32   2.366       .  S
Zr13         O40   2.432       .  S
Zr13         O28   2.437       .  S
Zr13         O19   2.387       .  S
Zr13         O20   2.394       .  S
Zr13         O21   2.387       .  S
Zr13         O22   2.382       .  S
Zr14         O33   2.435       .  S
Zr14         O26   2.434       .  S
Zr14         O27   2.395       .  S
Zr14         O20   2.401       .  S
Zr14         O21   2.369       .  S
Zr15         O17   2.434       .  S
Zr15         O39   2.440       .  S
Zr15         O41   2.398       .  S
Zr15         O19   2.410       .  S
Zr15         O22   2.370       .  S
Zr16         O42   2.431       .  S
Zr16         O43   2.432       .  S
Zr16         O18   2.438       .  S
Zr16         O19   2.401       .  S
Zr16         O20   2.375       .  S
O17          H54   0.990       .  S
O18          H49   0.990       .  S
O18          H63   0.990       .  S
O20          H46   0.964       .  S
O21         Zr31   2.354       .  S
O22         Zr31   2.365       .  S
O22          H47   0.965       .  S
C23        C3729   1.459       .  S
C24        C3734   1.492       .  S
C25        C3742   1.489       .  S
O26          H62   0.991       .  S
O27          C29   1.279       .  A
O28          C29   1.286       .  A
C29        C3725   1.468       .  S
O30         Zr31   2.441       .  S
O30          H59   0.991       .  S
Zr31         O34   2.436       .  S
Zr31         O35   2.442       .  S
Zr31         O36   2.541       .  S
O32          C37   1.263       .  A
O33          H50   0.990       .  S
O33          H65   0.990       .  S
O34          H51   0.990       .  S
O35          H55   0.990       .  S
O35          H64   0.990       .  S
O36          C37   1.299       .  A
C37        C3737   1.505       .  S
O38          H57   0.990       .  S
O38          H61   0.989       .  S
O39          H53   0.990       .  S
O39          H60   0.990       .  S
O40          C44   1.285       .  A
O41          C44   1.279       .  A
O42          H52   0.990       .  S
O43          H56   0.990       .  S
C44        C3721   1.462       .  S
Zr67         O68   2.434       .  S
Zr67         O69   2.422       .  S
Zr67         O70   2.465       .  S
Zr67         O73   2.457       .  S
Zr67         O75   2.371       .  S
Zr67         O76   2.388       .  S
Zr67         O77   2.414       .  S
Zr67         O78   2.418       .  S
O68         H124   0.990   1_556  S
O68         H132   0.990       .  S
O69          C89   1.282       .  A
O70          C91   1.286       .  A
O71         Zr81   2.433       .  S
O71          C90   1.285       .  A
O72         Zr80   2.400       .  S
O72          C91   1.273       .  A
O73          C90   1.291       .  A
O74         Zr82   2.418       .  S
O74          C89   1.283       .  A
O75         Zr80   2.378       .  S
O75         Zr82   2.359       .  S
O76         Zr81   2.387       .  S
O76         Zr82   2.357       .  S
O76         H111   0.964       .  S
O77         Zr80   2.404       .  S
O77         Zr97   2.410       .  S
O77         H114   0.966       .  S
O78         Zr81   2.397       .  S
O78         Zr97   2.412       .  S
Zr79        O104   2.442       .  S
Zr79         O98   2.407       .  S
Zr79        O106   2.425       .  S
Zr79         O94   2.441       .  S
Zr79         O85   2.404       .  S
Zr79         O86   2.391       .  S
Zr79         O87   2.374       .  S
Zr79         O88   2.396       .  S
Zr80         O99   2.434       .  S
Zr80         O92   2.435       .  S
Zr80         O93   2.421       .  S
Zr80         O86   2.414       .  S
Zr80         O87   2.369       .  S
Zr81         O83   2.434       .  S
Zr81        O105   2.431       .  S
Zr81        O107   2.442       .  S
Zr81         O85   2.399       .  S
Zr81         O88   2.381       .  S
Zr82        O108   2.435       .  S
Zr82        O109   2.434       .  S
Zr82         O84   2.436       .  S
Zr82         O85   2.385       .  S
Zr82         O86   2.377       .  S
O83         H120   0.990   1_565  S
O84         H115   0.991       .  S
O84         H129   0.990       .  S
O86         H112   0.964       .  S
O87         Zr97   2.391       .  S
O88         Zr97   2.379       .  S
O88         H113   0.965       .  S
C89        C3701   1.467       .  S
C90        C3717   1.483       .  S
C91        C3713   1.480       .  S
O92         H128   0.990       .  S
O93          C95   1.281       .  A
O94          C95   1.289       .  A
C95        C3730   1.473       .  S
O96         Zr97   2.439       .  S
O96         H125   0.990       .  S
Zr97        O100   2.436       .  S
Zr97        O101   2.439   1_565  S
Zr97        O102   2.445       .  S
O98         C103   1.269       .  A
O99         H116   0.990       .  S
O99         H131   0.990       .  S
O100        H117   0.990       .  S
O101        H121   0.990       .  S
O101        H130   0.990       .  S
O102        C103   1.276       .  A
C103       C3709   1.475       .  S
O104        H123   0.990       .  S
O104        H127   0.990       .  S
O105        H119   0.990       .  S
O105        H126   0.990       .  S
O106        C110   1.284       .  A
O107        C110   1.286       .  A
O108        H118   0.989       .  S
O109        H122   0.990       .  S
C110       C3706   1.464       .  S
Zr133       O134   2.433       .  S
Zr133       O135   2.434       .  S
Zr133       O136   2.449       .  S
Zr133       O139   2.478       .  S
Zr133       O141   2.388       .  S
Zr133       O142   2.380       .  S
Zr133       O143   2.432       .  S
Zr133       O144   2.423       .  S
O134        H190   0.990       .  S
O134        H198   0.990       .  S
O135        C155   1.283       .  A
O136        C157   1.287       .  A
O137       Zr147   2.420       .  S
O137        C156   1.282       .  A
O138       Zr146   2.438       .  S
O138        C157   1.287       .  A
O139        C156   1.292       .  A
O140       Zr148   2.437       .  S
O140        C155   1.286       .  A
O141       Zr146   2.383       .  S
O141       Zr148   2.367       .  S
O142       Zr147   2.378       .  S
O142       Zr148   2.352       .  S
O142        H177   0.964       .  S
O143       Zr146   2.405       .  S
O143       Zr163   2.425       .  S
O143        H180   0.967       .  S
O144       Zr147   2.390       .  S
O144       Zr163   2.435       .  S
Zr145       O170   2.434       .  S
Zr145       O164   2.392       .  S
Zr145       O172   2.416       .  S
Zr145       O160   2.434       .  S
Zr145       O151   2.388       .  S
Zr145       O152   2.401       .  S
Zr145       O153   2.366       .  S
Zr145       O154   2.384       .  S
Zr146       O165   2.440       .  S
Zr146       O158   2.429       .  S
Zr146       O159   2.450       .  S
Zr146       O152   2.396       .  S
Zr146       O153   2.377       .  S
Zr147       O149   2.433       .  S
Zr147       O171   2.442       .  S
Zr147       O173   2.406       .  S
Zr147       O151   2.398       .  S
Zr147       O154   2.381       .  S
Zr148       O174   2.433       .  S
Zr148       O175   2.429       .  S
Zr148       O150   2.433       .  S
Zr148       O151   2.392       .  S
Zr148       O152   2.397       .  S
O149        H186   0.990       .  S
O150        H181   0.990       .  S
O150        H195   0.990       .  S
O152        H178   0.966       .  S
O153       Zr163   2.345       .  S
O154       Zr163   2.370       .  S
O154        H179   0.966       .  S
C155       C3685   1.475       .  S
C156       C3693   1.495       .  S
C157       C3698   1.488       .  S
O158        H194   0.990       .  S
O159        C161   1.287       .  A
O160        C161   1.285       .  A
C161       C3705   1.471       .  S
O162       Zr163   2.438       .  S
O162        H191   0.990       .  S
Zr163       O166   2.435   1_565  S
Zr163       O167   2.440       .  S
Zr163       O168   2.510       .  S
O164        C169   1.274       .  A
O165        H182   0.991       .  S
O165        H197   0.990       .  S
O166        H183   0.990       .  S
O167        H187   0.990       .  S
O167        H196   0.989       .  S
O168        C169   1.297       .  A
C169       C3689   1.496       .  S
O170        H189   0.990       .  S
O170        H193   0.990       .  S
O171        H185   0.990       .  S
O171        H192   0.990       .  S
O172        C176   1.283       .  A
O173        C176   1.280       .  A
O174        H184   0.990       .  S
O175        H188   0.990       .  S
C176       C3722   1.455       .  S
Zr199       O200   2.446       .  S
Zr199       O201   2.389       .  S
Zr199       O202   2.435       .  S
Zr199       O205   2.435       .  S
Zr199       O207   2.377       .  S
Zr199       O208   2.401       .  S
Zr199       O209   2.384       .  S
Zr199       O210   2.390       .  S
O200        H256   0.989       .  S
O200        H264   0.991       .  S
O201        C221   1.263       .  A
O202        C223   1.285       .  A
O203       Zr213   2.406       .  S
O203        C222   1.282       .  A
O204       Zr212   2.405       .  S
O204        C223   1.278       .  A
O205        C222   1.286       .  A
O206       Zr214   2.490       .  S
O206        C221   1.284       .  A
O207       Zr212   2.378       .  S
O207       Zr214   2.379       .  S
O208       Zr213   2.376       .  S
O208       Zr214   2.378       .  S
O208        H243   0.964       .  S
O209       Zr212   2.406       .  S
O209       Zr229   2.369       .  S
O209        H246   0.964       .  S
O210       Zr213   2.397       .  S
O210       Zr229   2.364       .  S
Zr211       O236   2.435       .  S
Zr211       O230   2.461       .  S
Zr211       O238   2.448       .  S
Zr211       O226   2.460       .  S
Zr211       O217   2.433       .  S
Zr211       O218   2.433       .  S
Zr211       O219   2.369       .  S
Zr211       O220   2.378       .  S
Zr212       O231   2.438       .  S
Zr212       O224   2.434       .  S
Zr212       O225   2.398       .  S
Zr212       O218   2.394       .  S
Zr212       O219   2.384       .  S
Zr213       O215   2.435       .  S
Zr213       O237   2.436   1_556  S
Zr213       O239   2.422       .  S
Zr213       O217   2.380       .  S
Zr213       O220   2.382       .  S
Zr214       O240   2.435   1_556  S
Zr214       O241   2.436       .  S
Zr214       O216   2.438       .  S
Zr214       O217   2.426       .  S
Zr214       O218   2.437       .  S
O215        H252   0.990       .  S
O216        H247   0.990       .  S
O216        H261   0.990       .  S
O218        H244   0.964       .  S
O219       Zr229   2.369       .  S
O220       Zr229   2.369       .  S
O220        H245   0.965       .  S
C221       C3677   1.491       .  S
C222       C3702   1.468       .  S
C223       C3726   1.457       .  S
O224        H260   0.990       .  S
O225        C227   1.272       .  A
O226        C227   1.285       .  A
C227       C3673   1.465       .  S
O228       Zr229   2.435       .  S
O228        H257   0.990       .  S
Zr229       O232   2.435       .  S
Zr229       O233   2.436       .  S
Zr229       O234   2.388       .  S
O230        C235   1.289       .  A
O231        H248   0.990       .  S
O231        H263   0.990       .  S
O232        H249   0.990       .  S
O233        H253   0.990       .  S
O233        H262   0.990       .  S
O234        C235   1.277       .  A
C235       C3686   1.471       .  S
O236        H255   0.990       .  S
O236        H259   0.990       .  S
O237        H251   0.990       .  S
O237        H258   0.990       .  S
O238        C242   1.288       .  A
O239        C242   1.281       .  A
O240        H250   0.990       .  S
O241        H254   0.990       .  S
C242       C3681   1.475       .  S
Zr265       O266   2.435       .  S
Zr265       O267   2.412       .  S
Zr265       O268   2.541       .  S
Zr265       O271   2.517       .  S
Zr265       O273   2.345       .  S
Zr265       O274   2.381       .  S
Zr265       O275   2.451       .  S
Zr265       O276   2.437       .  S
O266        H322   0.990       .  S
O266        H330   0.990       .  S
O267        C287   1.279       .  A
O268        C289   1.304       .  A
O269       Zr279   2.370       .  S
O269        C288   1.274       .  A
O270       Zr278   2.406       .  S
O270        C289   1.279       .  A
O271        C288   1.300       .  A
O272       Zr280   2.433       .  S
O272        C287   1.287       .  A
O273       Zr278   2.363       .  S
O273       Zr280   2.332       .  S
O274       Zr279   2.369       .  S
O274       Zr280   2.365       .  S
O274        H309   0.965       .  S
O275       Zr278   2.397       .  S
O275       Zr295   2.448       .  S
O275        H312   0.965       .  S
O276       Zr279   2.390       .  S
O276       Zr295   2.447       .  S
Zr277       O302   2.437       .  S
Zr277       O296   2.364       .  S
Zr277       O304   2.435       .  S
Zr277       O292   2.420       .  S
Zr277       O283   2.392       .  S
Zr277       O284   2.391       .  S
Zr277       O285   2.384       .  S
Zr277       O286   2.379       .  S
Zr278       O297   2.440   1_556  S
Zr278       O290   2.441   1_556  S
Zr278       O291   2.407       .  S
Zr278       O284   2.412       .  S
Zr278       O285   2.371       .  S
Zr279       O281   2.434       .  S
Zr279       O303   2.438       .  S
Zr279       O305   2.384       .  S
Zr279       O283   2.379       .  S
Zr279       O286   2.354       .  S
Zr280       O306   2.430       .  S
Zr280       O307   2.433       .  S
Zr280       O282   2.434       .  S
Zr280       O283   2.384       .  S
Zr280       O284   2.386       .  S
O281        H318   0.990       .  S
O282        H313   0.987       .  S
O282        H327   0.989       .  S
O284        H310   0.965       .  S
O285       Zr295   2.368       .  S
O286       Zr295   2.341       .  S
O286        H311   0.962       .  S
C287       C3649   1.468       .  S
C288       C3662   1.496       .  S
C289       C3670   1.497       .  S
O290        H326   0.991       .  S
O291        C293   1.278       .  A
O292        C293   1.283       .  A
C293       C3657   1.454   1_556  S
O294       Zr295   2.440       .  S
O294        H323   0.990       .  S
Zr295       O298   2.438   1_556  S
Zr295       O299   2.438       .  S
Zr295       O300   2.536       .  S
O296        C301   1.273       .  A
O297        H314   0.990       .  S
O297        H329   0.990       .  S
O298        H315   0.990       .  S
O299        H319   0.990       .  S
O299        H328   0.990       .  S
O300        C301   1.303       .  A
C301       C3665   1.498       .  S
O302        H321   0.990       .  S
O302        H325   0.990       .  S
O303        H317   0.990       .  S
O303        H324   0.990       .  S
O304        C308   1.284       .  A
O305        C308   1.279       .  A
O306        H316   0.989       .  S
O307        H320   0.990       .  S
C308       C3653   1.458       .  S
Zr331       O332   2.434       .  S
Zr331       O333   2.423       .  S
Zr331       O334   2.495       .  S
Zr331       O337   2.498       .  S
Zr331       O339   2.376       .  S
Zr331       O340   2.381       .  S
Zr331       O341   2.436       .  S
Zr331       O342   2.426       .  S
O332        H388   0.990       .  S
O332        H396   0.990       .  S
O333        C353   1.281       .  A
O334        C355   1.297       .  A
O335       Zr345   2.401       .  S
O335        C354   1.279       .  A
O336       Zr344   2.424       .  S
O336        C355   1.283       .  A
O337        C354   1.298       .  A
O338       Zr346   2.414       .  S
O338        C353   1.281       .  A
O339       Zr344   2.391       .  S
O339       Zr346   2.356       .  S
O340       Zr345   2.382       .  S
O340       Zr346   2.360       .  S
O340        H375   0.964       .  S
O341       Zr344   2.401       .  S
O341       Zr361   2.428       .  S
O341        H378   0.967       .  S
O342       Zr345   2.399       .  S
O342       Zr361   2.424       .  S
Zr343       O368   2.436       .  S
Zr343       O362   2.372       .  S
Zr343       O370   2.417       .  S
Zr343       O358   2.404       .  S
Zr343       O349   2.390       .  S
Zr343       O350   2.391       .  S
Zr343       O351   2.381       .  S
Zr343       O352   2.372       .  S
Zr344       O363   2.434       .  S
Zr344       O356   2.437       .  S
Zr344       O357   2.444       .  S
Zr344       O350   2.398       .  S
Zr344       O351   2.373       .  S
Zr345       O347   2.434       .  S
Zr345       O369   2.438       .  S
Zr345       O371   2.426       .  S
Zr345       O349   2.393       .  S
Zr345       O352   2.367       .  S
Zr346       O372   2.434       .  S
Zr346       O373   2.426       .  S
Zr346       O348   2.438       .  S
Zr346       O349   2.400       .  S
Zr346       O350   2.378       .  S
O347        H384   0.990       .  S
O348        H379   0.990       .  S
O348        H393   0.990       .  S
O350        H376   0.965       .  S
O351       Zr361   2.376       .  S
O352       Zr361   2.368       .  S
O352        H377   0.967       .  S
C353       C3633   1.461       .  S
C354       C3641   1.493       .  S
C355       C3637   1.500       .  S
O356        H392   0.991       .  S
O357        C359   1.288       .  A
O358        C359   1.277       .  A
C359       C3629   1.470       .  S
O360       Zr361   2.440       .  S
O360        H389   0.990       .  S
Zr361       O364   2.437       .  S
Zr361       O365   2.440       .  S
Zr361       O366   2.486       .  S
O362        C367   1.275       .  A
O363        H380   0.990       .  S
O363        H395   0.990       .  S
O364        H381   0.990       .  S
O365        H385   0.990       .  S
O365        H394   0.990       .  S
O366        C367   1.292       .  A
C367       C3645   1.480       .  S
O368        H387   0.989       .  S
O368        H391   0.990       .  S
O369        H383   0.990       .  S
O369        H390   0.990       .  S
O370        C374   1.281       .  A
O371        C374   1.284       .  A
O372        H382   0.990       .  S
O373        H386   0.989       .  S
C374       C3650   1.470       .  S
Zr397       O398   2.435       .  S
Zr397       O399   2.455       .  S
Zr397       O400   2.461       .  S
Zr397       O403   2.486       .  S
Zr397       O405   2.381       .  S
Zr397       O406   2.383       .  S
Zr397       O407   2.439       .  S
Zr397       O408   2.431       .  S
O398        H454   0.990       .  S
O398        H462   0.990       .  S
O399        C419   1.287       .  A
O400        C421   1.290       .  A
O401       Zr411   2.407       .  S
O401        C420   1.275       .  A
O402       Zr410   2.433       .  S
O402        C421   1.286       .  A
O403        C420   1.293       .  A
O404       Zr412   2.391       .  S
O404        C419   1.277       .  A
O405       Zr410   2.385       .  S
O405       Zr412   2.370       .  S
O406       Zr411   2.391       .  S
O406       Zr412   2.366       .  S
O406        H441   0.965       .  S
O407       Zr410   2.393       .  S
O407       Zr427   2.431       .  S
O407        H444   0.966       .  S
O408       Zr411   2.391       .  S
O408       Zr427   2.438       .  S
Zr409       O434   2.439       .  S
Zr409       O428   2.374       .  S
Zr409       O436   2.437       .  S
Zr409       O424   2.426       .  S
Zr409       O415   2.363       .  S
Zr409       O416   2.396       .  S
Zr409       O417   2.381       .  S
Zr409       O418   2.385       .  S
Zr410       O429   2.436       .  S
Zr410       O422   2.436       .  S
Zr410       O423   2.427       .  S
Zr410       O416   2.398       .  S
Zr410       O417   2.387       .  S
Zr411       O413   2.434       .  S
Zr411       O435   2.440       .  S
Zr411       O437   2.393       .  S
Zr411       O415   2.390       .  S
Zr411       O418   2.386       .  S
Zr412       O438   2.437       .  S
Zr412       O439   2.436       .  S
Zr412       O414   2.428       .  S
Zr412       O415   2.354       .  S
Zr412       O416   2.375       .  S
O413        H450   0.990       .  S
O414        H445   0.990       .  S
O414        H459   0.990       .  S
O416        H442   0.964       .  S
O417       Zr427   2.361       .  S
O418       Zr427   2.372       .  S
O418        H443   0.965       .  S
C419       C3613   1.468       .  S
C420       C3625   1.490       .  S
C421       C3618   1.491       .  S
O422        H458   0.990       .  S
O423        C425   1.284       .  A
O424        C425   1.283       .  A
C425       C3634   1.469       .  S
O426       Zr427   2.441       .  S
O426        H455   0.991       .  S
Zr427       O430   2.439       .  S
Zr427       O431   2.439       .  S
Zr427       O432   2.509       .  S
O428        C433   1.271       .  A
O429        H446   0.990       .  S
O429        H461   0.990       .  S
O430        H447   0.990       .  S
O431        H451   0.990       .  S
O431        H460   0.990       .  S
O432        C433   1.296       .  A
C433       C3622   1.495       .  S
O434        H453   0.990       .  S
O434        H457   0.990       .  S
O435        H449   0.989       .  S
O435        H456   0.990       .  S
O436        C440   1.286       .  A
O437        C440   1.272       .  A
O438        H448   0.990       .  S
O439        H452   0.990       .  S
C440       C3654   1.441       .  S
Zr463       O464   2.434       .  S
Zr463       O465   2.440       .  S
Zr463       O466   2.511       .  S
Zr463       O469   2.498       .  S
Zr463       O471   2.367       .  S
Zr463       O472   2.377       .  S
Zr463       O473   2.441       .  S
Zr463       O474   2.445       .  S
O464        H520   0.990       .  S
O464        H528   0.990       .  S
O465        C485   1.285       .  A
O466        C487   1.300       .  A
O467       Zr477   2.396       .  S
O467        C486   1.279       .  A
O468       Zr476   2.401       .  S
O468        C487   1.278       .  A
O469        C486   1.297       .  A
O470       Zr478   2.436       .  S
O470        C485   1.285       .  A
O471       Zr476   2.379       .  S
O471       Zr478   2.366       .  S
O472       Zr477   2.381       .  S
O472       Zr478   2.345       .  S
O472        H507   0.963       .  S
O473       Zr476   2.387       .  S
O473       Zr493   2.442       .  S
O473        H510   0.965       .  S
O474       Zr477   2.390       .  S
O474       Zr493   2.447       .  S
Zr475       O500   2.426       .  S
Zr475       O494   2.344       .  S
Zr475       O502   2.447       .  S
Zr475       O490   2.435       .  S
Zr475       O481   2.373       .  S
Zr475       O482   2.387       .  S
Zr475       O483   2.373       .  S
Zr475       O484   2.374       .  S
Zr476       O495   2.439   1_556  S
Zr476       O488   2.436       .  S
Zr476       O489   2.391       .  S
Zr476       O482   2.396       .  S
Zr476       O483   2.371       .  S
Zr477       O479   2.434       .  S
Zr477       O501   2.437       .  S
Zr477       O503   2.408       .  S
Zr477       O481   2.394       .  S
Zr477       O484   2.374       .  S
Zr478       O504   2.436       .  S
Zr478       O505   2.430       .  S
Zr478       O480   2.434       .  S
Zr478       O481   2.395       .  S
Zr478       O482   2.385       .  S
O479        H516   0.990       .  S
O480        H511   0.990       .  S
O480        H525   0.989       .  S
O482        H508   0.967       .  S
O483       Zr493   2.344       .  S
O484       Zr493   2.353       .  S
O484        H509   0.966       .  S
C485       C3614   1.473       .  S
C486       C3602   1.483       .  S
C487       C3605   1.500       .  S
O488        H524   0.990       .  S
O489        C491   1.278       .  A
O490        C491   1.287       .  A
C491       C3658   1.463       .  S
O492       Zr493   2.439       .  S
O492        H521   0.990       .  S
Zr493       O496   2.437   1_556  S
Zr493       O497   2.439       .  S
Zr493       O498   2.545       .  S
O494        C499   1.270       .  A
O495        H512   0.990       .  S
O495        H527   0.990       .  S
O496        H513   0.990       .  S
O497        H517   0.990       .  S
O497        H526   0.988       .  S
O498        C499   1.305       .  A
C499       C3609   1.511       .  S
O500        H519   0.990       .  S
O500        H523   0.989       .  S
O501        H515   0.990       .  S
O501        H522   0.989       .  S
O502        C506   1.290       .  A
O503        C506   1.279       .  A
O504        H514   0.990       .  S
O505        H518   0.989       .  S
C506       C3630   1.472       .  S
Zr529       O530   2.435       .  S
Zr529       O531   2.423       .  S
Zr529       O532   2.483       .  S
Zr529       O535   2.464       .  S
Zr529       O537   2.375       .  S
Zr529       O538   2.393       .  S
Zr529       O539   2.423       .  S
Zr529       O540   2.415       .  S
O530        H586   0.990       .  S
O530        H594   0.990       .  S
O531        C551   1.281       .  A
O532        C553   1.292       .  A
O533       Zr543   2.401       .  S
O533        C552   1.280       .  A
O534       Zr542   2.399       .  S
O534        C553   1.280       .  A
O535        C552   1.291       .  A
O536       Zr544   2.435       .  S
O536        C551   1.285       .  A
O537       Zr542   2.392       .  S
O537       Zr544   2.354       .  S
O538       Zr543   2.383       .  S
O538       Zr544   2.366       .  S
O538        H573   0.965       .  S
O539       Zr542   2.398       .  S
O539       Zr559   2.414       .  S
O539        H576   0.967       .  S
O540       Zr543   2.404       .  S
O540       Zr559   2.401       .  S
Zr541       O566   2.440       .  S
Zr541       O560   2.404       .  S
Zr541       O568   2.404       .  S
Zr541       O556   2.412       .  S
Zr541       O547   2.398       .  S
Zr541       O548   2.390       .  S
Zr541       O549   2.379       .  S
Zr541       O550   2.375       .  S
Zr542       O561   2.434       .  S
Zr542       O554   2.438       .  S
Zr542       O555   2.442       .  S
Zr542       O548   2.397       .  S
Zr542       O549   2.368       .  S
Zr543       O545   2.435       .  S
Zr543       O567   2.440       .  S
Zr543       O569   2.447       .  S
Zr543       O547   2.379       .  S
Zr543       O550   2.367       .  S
Zr544       O570   2.431       .  S
Zr544       O571   2.428       .  S
Zr544       O546   2.438       .  S
Zr544       O547   2.401       .  S
Zr544       O548   2.387       .  S
O545        H582   0.990       .  S
O546        H577   0.990       .  S
O546        H591   0.990       .  S
O548        H574   0.965       .  S
O549       Zr559   2.387       .  S
O550       Zr559   2.373       .  S
O550        H575   0.965       .  S
C551       C3581   1.467       .  S
C552       C3590   1.476       .  S
C553       C3594   1.484       .  S
O554        H590   0.991       .  S
O555        C557   1.286       .  A
O556        C557   1.279       .  A
C557       C3577   1.472       .  S
O558       Zr559   2.439       .  S
O558        H587   0.990       .  S
Zr559       O562   2.438       .  S
Zr559       O563   2.439       .  S
Zr559       O564   2.445       .  S
O560        C565   1.282       .  A
O561        H578   0.990       .  S
O561        H593   0.990       .  S
O562        H579   0.990       .  S
O563        H583   0.990       .  S
O563        H592   0.990       .  S
O564        C565   1.284       .  A
C565       C3597   1.471       .  S
O566        H585   0.990       .  S
O566        H589   0.989       .  S
O567        H581   0.990       .  S
O567        H588   0.990       .  S
O568        C572   1.278       .  A
O569        C572   1.285       .  A
O570        H580   0.989       .  S
O571        H584   0.990       .  S
C572       C3585   1.458       .  S
Zr595       O596   2.435       .  S
Zr595       O597   2.433       .  S
Zr595       O598   2.500       .  S
Zr595       O601   2.475       .  S
Zr595       O603   2.368       .  S
Zr595       O604   2.382       .  S
Zr595       O605   2.437       .  S
Zr595       O606   2.436       .  S
O596        H652   0.990       .  S
O596        H660   0.990       .  S
O597        C617   1.283       .  A
O598        C619   1.293       .  A
O599       Zr609   2.422       .  S
O599        C618   1.282       .  A
O600       Zr608   2.404       .  S
O600        C619   1.273       .  A
O601        C618   1.293       .  A
O602       Zr610   2.416       .  S
O602        C617   1.282       .  A
O603       Zr608   2.389       .  S
O603       Zr610   2.361       .  S
O604       Zr609   2.379       .  S
O604       Zr610   2.366       .  S
O604        H639   0.965       .  S
O605       Zr608   2.403       .  S
O605       Zr625   2.437       .  S
O605        H642   0.966       .  S
O606       Zr609   2.394       .  S
O606       Zr625   2.431       .  S
Zr607       O632   2.435       .  S
Zr607       O626   2.376       .  S
Zr607       O634   2.416       .  S
Zr607       O622   2.399       .  S
Zr607       O613   2.387       .  S
Zr607       O614   2.383       .  S
Zr607       O615   2.372       .  S
Zr607       O616   2.384       .  S
Zr608       O627   2.435       .  S
Zr608       O620   2.436       .  S
Zr608       O621   2.420       .  S
Zr608       O614   2.403       .  S
Zr608       O615   2.374       .  S
Zr609       O611   2.434       .  S
Zr609       O633   2.439       .  S
Zr609       O635   2.430       .  S
Zr609       O613   2.394       .  S
Zr609       O616   2.371       .  S
Zr610       O636   2.436       .  S
Zr610       O637   2.435       .  S
Zr610       O612   2.436       .  S
Zr610       O613   2.383       .  S
Zr610       O614   2.386       .  S
O611        H648   0.990       .  S
O612        H643   0.990       .  S
O612        H657   0.990       .  S
O614        H640   0.967       .  S
O615       Zr625   2.365       .  S
O616       Zr625   2.358       .  S
O616        H641   0.965       .  S
C617       C3582   1.465       .  S
C618       C3573   1.483       .  S
C619       C3569   1.498       .  S
O620        H656   0.989       .  S
O621        C623   1.281       .  A
O622        C623   1.283       .  A
C623       C3562   1.465       .  S
O624       Zr625   2.438       .  S
O624        H653   0.990       .  S
Zr625       O628   2.437       .  S
Zr625       O629   2.438       .  S
Zr625       O630   2.512       .  S
O626        C631   1.264       .  A
O627        H644   0.990       .  S
O627        H659   0.990       .  S
O628        H645   0.990       .  S
O629        H649   0.990       .  S
O629        H658   0.990       .  S
O630        C631   1.291       .  A
C631       C3565   1.497       .  S
O632        H651   0.989       .  S
O632        H655   0.990       .  S
O633        H647   0.990       .  S
O633        H654   0.990       .  S
O634        C638   1.283       .  A
O635        C638   1.287       .  A
O636        H646   0.990       .  S
O637        H650   0.990       .  S
C638       C3558   1.467       .  S
Zr661       O662   2.433       .  S
Zr661       O663   2.391       .  S
Zr661       O664   2.483       .  S
Zr661       O667   2.495       .  S
Zr661       O669   2.370       .  S
Zr661       O670   2.378       .  S
Zr661       O671   2.431       .  S
Zr661       O672   2.409       .  S
O662        H718   0.990       .  S
O662        H726   0.990       .  S
O663        C683   1.277       .  A
O664        C685   1.293       .  A
O665       Zr675   2.383       .  S
O665        C684   1.277       .  A
O666       Zr674   2.410       .  S
O666        C685   1.282       .  A
O667        C684   1.296       .  A
O668       Zr676   2.481       .  S
O668        C683   1.292       .  A
O669       Zr674   2.377       .  S
O669       Zr676   2.336       .  S
O670       Zr675   2.390       .  S
O670       Zr676   2.360       .  S
O670        H705   0.965       .  S
O671       Zr674   2.406       .  S
O671       Zr691   2.414       .  S
O671        H708   0.967       .  S
O672       Zr675   2.396       .  S
O672       Zr691   2.423       .  S
Zr673       O698   2.430       .  S
Zr673       O692   2.391       .  S
Zr673       O700   2.425       .  S
Zr673       O688   2.407       .  S
Zr673       O679   2.393       .  S
Zr673       O680   2.396       .  S
Zr673       O681   2.378       .  S
Zr673       O682   2.374       .  S
Zr674       O693   2.436   1_545  S
Zr674       O686   2.435       .  S
Zr674       O687   2.455       .  S
Zr674       O680   2.396       .  S
Zr674       O681   2.368       .  S
Zr675       O677   2.435       .  S
Zr675       O699   2.435       .  S
Zr675       O701   2.415       .  S
Zr675       O679   2.392       .  S
Zr675       O682   2.367       .  S
Zr676       O702   2.435       .  S
Zr676       O703   2.431       .  S
Zr676       O678   2.437       .  S
Zr676       O679   2.418       .  S
Zr676       O680   2.413       .  S
O677        H714   0.990       .  S
O678        H709   0.990       .  S
O678        H723   0.988       .  S
O680        H706   0.967       .  S
O681       Zr691   2.376       .  S
O682       Zr691   2.358       .  S
O682        H707   0.965       .  S
C683       C3586   1.477       .  S
C684       C3550   1.482       .  S
C685       C3554   1.478       .  S
O686        H722   0.990       .  S
O687        C689   1.287       .  A
O688        C689   1.280       .  A
C689       C3541   1.470   1_545  S
O690       Zr691   2.439       .  S
O690        H719   0.990       .  S
Zr691       O694   2.437   1_545  S
Zr691       O695   2.437       .  S
Zr691       O696   2.479       .  S
O692        C697   1.280       .  A
O693        H710   0.990       .  S
O693        H725   0.990       .  S
O694        H711   0.990       .  S
O695        H715   0.990       .  S
O695        H724   0.990       .  S
O696        C697   1.290       .  A
C697       C3545   1.488       .  S
O698        H717   0.990       .  S
O698        H721   0.989       .  S
O699        H713   0.990       .  S
O699        H720   0.990       .  S
O700        C704   1.282       .  A
O701        C704   1.283       .  A
O702        H712   0.990       .  S
O703        H716   0.990       .  S
C704       C3561   1.464       .  S
Zr727       O728   2.436       .  S
Zr727       O729   2.415       .  S
Zr727       O730   2.498       .  S
Zr727       O733   2.492       .  S
Zr727       O735   2.373       .  S
Zr727       O736   2.384       .  S
Zr727       O737   2.430       .  S
Zr727       O738   2.422       .  S
O728        H784   0.990       .  S
O728        H792   0.990       .  S
O729        C749   1.280       .  A
O730        C751   1.296       .  A
O731       Zr741   2.412       .  S
O731        C750   1.281       .  A
O732       Zr740   2.418       .  S
O732        C751   1.283       .  A
O733        C750   1.296       .  A
O734       Zr742   2.435       .  S
O734        C749   1.286       .  A
O735       Zr740   2.372       .  S
O735       Zr742   2.350       .  S
O736       Zr741   2.384       .  S
O736       Zr742   2.363       .  S
O736        H771   0.963       .  S
O737       Zr740   2.396       .  S
O737       Zr757   2.423       .  S
O737        H774   0.965       .  S
O738       Zr741   2.402       .  S
O738       Zr757   2.435       .  S
Zr739       O764   2.434       .  S
Zr739       O758   2.371       .  S
Zr739       O766   2.451       .  S
Zr739       O754   2.412       .  S
Zr739       O745   2.391       .  S
Zr739       O746   2.396       .  S
Zr739       O747   2.378       .  S
Zr739       O748   2.373       .  S
Zr740       O759   2.435       .  S
Zr740       O752   2.434       .  S
Zr740       O753   2.422       .  S
Zr740       O746   2.399       .  S
Zr740       O747   2.376       .  S
Zr741       O743   2.433   1_545  S
Zr741       O765   2.438       .  S
Zr741       O767   2.431       .  S
Zr741       O745   2.397       .  S
Zr741       O748   2.382       .  S
Zr742       O768   2.430       .  S
Zr742       O769   2.431       .  S
Zr742       O744   2.437       .  S
Zr742       O745   2.405       .  S
Zr742       O746   2.380       .  S
O743        H780   0.990       .  S
O744        H775   0.989       .  S
O744        H789   0.990       .  S
O746        H772   0.966       .  S
O747       Zr757   2.356       .  S
O748       Zr757   2.357       .  S
O748        H773   0.966       .  S
C749       C3578   1.462       .  S
C750       C3537   1.492       .  S
C751       C3533   1.497       .  S
O752        H788   0.991       .  S
O753        C755   1.281       .  A
O754        C755   1.284       .  A
C755       C3557   1.469       .  S
O756       Zr757   2.438       .  S
O756        H785   0.990       .  S
Zr757       O760   2.435       .  S
Zr757       O761   2.439   1_545  S
Zr757       O762   2.508       .  S
O758        C763   1.274       .  A
O759        H776   0.990       .  S
O759        H791   0.990       .  S
O760        H777   0.990       .  S
O761        H781   0.990       .  S
O761        H790   0.990       .  S
O762        C763   1.297       .  A
C763       C3530   1.492       .  S
O764        H783   0.990       .  S
O764        H787   0.990       .  S
O765        H779   0.990       .  S
O765        H786   0.990       .  S
O766        C770   1.287       .  A
O767        C770   1.283       .  A
O768        H778   0.989       .  S
O769        H782   0.990       .  S
C770       C3542   1.472   1_545  S
Zr793       O794   2.445       .  S
Zr793       O795   2.461       .  S
Zr793       O796   2.427       .  S
Zr793       O799   2.464       .  S
Zr793       O801   2.388       .  S
Zr793       O802   2.381       .  S
Zr793       O803   2.424       .  S
Zr793       O804   2.402       .  S
O794        H850   0.991       .  S
O794        H858   0.991       .  S
O795        C815   1.288       .  A
O796        C817   1.280       .  A
O797       Zr807   2.457       .  S
O797        C816   1.289       .  A
O798       Zr806   2.475       .  S
O798        C817   1.291       .  A
O799        C816   1.288       .  A
O800       Zr808   2.421       .  S
O800        C815   1.278       .  A
O801       Zr806   2.411       .  S
O801       Zr808   2.386       .  S
O802       Zr807   2.405       .  S
O802       Zr808   2.388       .  S
O802        H837   0.964       .  S
O803       Zr806   2.421       .  S
O803       Zr823   2.408       .  S
O803        H840   0.964       .  S
O804       Zr807   2.397       .  S
O804       Zr823   2.400       .  S
Zr805       O830   2.445       .  S
Zr805       O824   2.420       .  S
Zr805       O832   2.419       .  S
Zr805       O820   2.422       .  S
Zr805       O811   2.396       .  S
Zr805       O812   2.402       .  S
Zr805       O813   2.374       .  S
Zr805       O814   2.373       .  S
Zr806       O825   2.434       .  S
Zr806       O818   2.434       .  S
Zr806       O819   2.496       .  S
Zr806       O812   2.405       .  S
Zr806       O813   2.401       .  S
Zr807       O809   2.435       .  S
Zr807       O831   2.437       .  S
Zr807       O833   2.478       .  S
Zr807       O811   2.393       .  S
Zr807       O814   2.389       .  S
Zr808       O834   2.436       .  S
Zr808       O835   2.436       .  S
Zr808       O810   2.437       .  S
Zr808       O811   2.398       .  S
Zr808       O812   2.395       .  S
O809        H846   0.990       .  S
O810        H841   0.990       .  S
O810        H855   0.990       .  S
O812        H838   0.967       .  S
O813       Zr823   2.383       .  S
O814       Zr823   2.368       .  S
O814        H839   0.965       .  S
C815       C3601   1.482       .  S
C816       C3638   1.495       .  S
C817       C3617   1.480       .  S
O818        H854   0.989       .  S
O819        C821   1.295       .  A
O820        C821   1.283       .  A
C821       C3534   1.495       .  S
O822       Zr823   2.438       .  S
O822        H851   0.990       .  S
Zr823       O826   2.437       .  S
Zr823       O827   2.439       .  S
Zr823       O828   2.450       .  S
O824        C829   1.282       .  A
O825        H842   0.990       .  S
O825        H857   0.990       .  S
O826        H843   0.990       .  S
O827        H847   0.990       .  S
O827        H856   0.990       .  S
O828        C829   1.285       .  A
C829       C3593   1.474       .  S
O830        H849   0.990       .  S
O830        H853   0.990       .  S
O831        H845   0.990       .  S
O831        H852   0.990       .  S
O832        C836   1.282       .  A
O833        C836   1.292       .  A
O834        H844   0.990       .  S
O835        H848   0.990       .  S
C836       C3574   1.483       .  S
Zr859       O860   2.436       .  S
Zr859       O861   2.357       .  S
Zr859       O862   2.451       .  S
Zr859       O865   2.425       .  S
Zr859       O867   2.372       .  S
Zr859       O868   2.387       .  S
Zr859       O869   2.397       .  S
Zr859       O870   2.377       .  S
O860        H916   0.991       .  S
O860        H924   0.990       .  S
O861        C881   1.269       .  A
O862        C883   1.284       .  A
O863       Zr873   2.400       .  S
O863        C882   1.279       .  A
O864       Zr872   2.384       .  S
O864        C883   1.269       .  A
O865        C882   1.285       .  A
O866       Zr874   2.538       .  S
O866        C881   1.303       .  A
O867       Zr872   2.375       .  S
O867       Zr874   2.318       .  S
O868       Zr873   2.385       .  S
O868       Zr874   2.365       .  S
O868        H903   0.964       .  S
O869       Zr872   2.400       .  S
O869       Zr889   2.377       .  S
O869        H906   0.965       .  S
O870       Zr873   2.403       .  S
O870       Zr889   2.379       .  S
Zr871       O896   2.435       .  S
Zr871       O890   2.476       .  S
Zr871       O898   2.447       .  S
Zr871       O886   2.462       .  S
Zr871       O877   2.440       .  S
Zr871       O878   2.437       .  S
Zr871       O879   2.366       .  S
Zr871       O880   2.387       .  S
Zr872       O891   2.438       .  S
Zr872       O884   2.436       .  S
Zr872       O885   2.387       .  S
Zr872       O878   2.391       .  S
Zr872       O879   2.369       .  S
Zr873       O875   2.434       .  S
Zr873       O897   2.435       .  S
Zr873       O899   2.423       .  S
Zr873       O877   2.389       .  S
Zr873       O880   2.385       .  S
Zr874       O900   2.435       .  S
Zr874       O901   2.434       .  S
Zr874       O876   2.435       .  S
Zr874       O877   2.435       .  S
Zr874       O878   2.448       .  S
O875        H912   0.990       .  S
O876        H907   0.990       .  S
O876        H921   0.990       .  S
O878        H904   0.965       .  S
O879       Zr889   2.368       .  S
O880       Zr889   2.358       .  S
O880        H905   0.962       .  S
C881       C3525   1.502       .  S
C882       C3509   1.453       .  S
C883       C3513   1.451       .  S
O884        H920   0.989       .  S
O885        C887   1.277       .  A
O886        C887   1.289       .  A
C887       C3518   1.479       .  S
O888       Zr889   2.426       .  S
O888        H917   0.990       .  S
Zr889       O892   2.429       .  S
Zr889       O893   2.439       .  S
Zr889       O894   2.405       .  S
O890        C895   1.292       .  A
O891        H908   0.989       .  S
O891        H923   0.990       .  S
O892        H909   0.990       .  S
O893        H913   0.990       .  S
O893        H922   0.990       .  S
O894        C895   1.279       .  A
C895       C3505   1.479       .  S
O896        H915   0.990       .  S
O896        H919   0.990       .  S
O897        H911   0.990       .  S
O897        H918   0.990       .  S
O898        C902   1.284       .  A
O899        C902   1.275       .  A
O900        H910   0.990       .  S
O901        H914   0.990       .  S
C902       C3522   1.474       .  S
Zr925       O926   2.435       .  S
Zr925       O927   2.465       .  S
Zr925       O928   2.476       .  S
Zr925       O931   2.460       .  S
Zr925       O933   2.364       .  S
Zr925       O934   2.381       .  S
Zr925       O935   2.442       .  S
Zr925       O936   2.438       .  S
O926        H982   0.990       .  S
O926        H990   0.990       .  S
O927        C947   1.290       .  A
O928        C949   1.290       .  A
O929       Zr939   2.412       .  S
O929        C948   1.281       .  A
O930       Zr938   2.384       .  S
O930        C949   1.276       .  A
O931        C948   1.288       .  A
O932       Zr940   2.408       .  S
O932        C947   1.280       .  A
O933       Zr938   2.370       .  S
O933       Zr940   2.358       .  S
O934       Zr939   2.380       .  S
O934       Zr940   2.369       .  S
O934        H969   0.963       .  S
O935       Zr938   2.380       .  S
O935       Zr955   2.439       .  S
O935        H972   0.964       .  S
O936       Zr939   2.386       .  S
O936       Zr955   2.445       .  S
Zr937       O962   2.442       .  S
Zr937       O956   2.380       .  S
Zr937       O964   2.417       .  S
Zr937       O952   2.443       .  S
Zr937       O943   2.380       .  S
Zr937       O944   2.394       .  S
Zr937       O945   2.381       .  S
Zr937       O946   2.386       .  S
Zr938       O957   2.434       .  S
Zr938       O950   2.433       .  S
Zr938       O951   2.375       .  S
Zr938       O944   2.404       .  S
Zr938       O945   2.370       .  S
Zr939       O941   2.436       .  S
Zr939       O963   2.439       .  S
Zr939       O965   2.400       .  S
Zr939       O943   2.391       .  S
Zr939       O946   2.382       .  S
Zr940       O966   2.436       .  S
Zr940       O967   2.438       .  S
Zr940       O942   2.441       .  S
Zr940       O943   2.376       .  S
Zr940       O944   2.384       .  S
O941        H978   0.990       .  S
O942        H973   0.990       .  S
O942        H987   0.990       .  S
O944        H970   0.964       .  S
O945       Zr955   2.357       .  S
O946       Zr955   2.378       .  S
O946        H971   0.967       .  S
C947       C3506   1.477       .  S
C948       C3493   1.488       .  S
C949       C3498   1.478       .  S
O950        H986   0.991       .  S
O951        C953   1.274       .  A
O952        C953   1.286       .  A
C953       C3489   1.458       .  S
O954       Zr955   2.441       .  S
O954        H983   0.990       .  S
Zr955       O958   2.438       .  S
Zr955       O959   2.442       .  S
Zr955       O960   2.521       .  S
O956        C961   1.269       .  A
O957        H974   0.990       .  S
O957        H989   0.990       .  S
O958        H975   0.990       .  S
O959        H979   0.990       .  S
O959        H988   0.990       .  S
O960        C961   1.295       .  A
C961       C3501   1.502       .  S
O962        H981   0.990       .  S
O962        H985   0.989       .  S
O963        H977   0.990       .  S
O963        H984   0.990       .  S
O964        C968   1.282       .  A
O965        C968   1.279       .  A
O966        H976   0.990       .  S
O967        H980   0.990       .  S
C968       C3485   1.455       .  S
Zr991       O992   2.433   1_565  S
Zr991       O993   2.466       .  S
Zr991       O994   2.480       .  S
Zr991       O997   2.456       .  S
Zr991       O999   2.362       .  S
Zr991      O1000   2.389       .  S
Zr991      O1001   2.444       .  S
Zr991      O1002   2.437       .  S
O992       H1048   0.990       .  S
O992       H1056   0.990       .  S
O993       C1013   1.291       .  A
O994       C1015   1.283       .  A
O995      Zr1005   2.424       .  S
O995       C1014   1.284       .  A
O996      Zr1004   2.389       .  S
O996       C1015   1.269       .  A
O997       C1014   1.290       .  A
O998      Zr1006   2.425       .  S
O998       C1013   1.284       .  A
O999      Zr1004   2.360       .  S
O999      Zr1006   2.345       .  S
O1000     Zr1005   2.383       .  S
O1000     Zr1006   2.357       .  S
O1000      H1035   0.963       .  S
O1001     Zr1004   2.389       .  S
O1001     Zr1021   2.433       .  S
O1001      H1038   0.965       .  S
O1002     Zr1005   2.388       .  S
O1002     Zr1021   2.443       .  S
Zr1003     O1028   2.434       .  S
Zr1003     O1022   2.349       .  S
Zr1003     O1030   2.434       .  S
Zr1003     O1018   2.446       .  S
Zr1003     O1009   2.387       .  S
Zr1003     O1010   2.377       .  S
Zr1003     O1011   2.371       .  S
Zr1003     O1012   2.384       .  S
Zr1004     O1023   2.439       .  S
Zr1004     O1016   2.437       .  S
Zr1004     O1017   2.368       .  S
Zr1004     O1010   2.407       .  S
Zr1004     O1011   2.375       .  S
Zr1005     O1007   2.436       .  S
Zr1005     O1029   2.438       .  S
Zr1005     O1031   2.404       .  S
Zr1005     O1009   2.398       .  S
Zr1005     O1012   2.389       .  S
Zr1006     O1032   2.439       .  S
Zr1006     O1033   2.433       .  S
Zr1006     O1008   2.433       .  S
Zr1006     O1009   2.378       .  S
Zr1006     O1010   2.397       .  S
O1007      H1044   0.990       .  S
O1008      H1039   0.990       .  S
O1008      H1053   0.990       .  S
O1010      H1036   0.966       .  S
O1011     Zr1021   2.359       .  S
O1012     Zr1021   2.350       .  S
O1012      H1037   0.963       .  S
C1013      C3469   1.484       .  S
C1014      C3478   1.480       .  S
C1015      C3482   1.482       .  S
O1016      H1052   0.991       .  S
O1017      C1019   1.272       .  A
O1018      C1019   1.287       .  A
C1019      C3490   1.455       .  S
O1020     Zr1021   2.439       .  S
O1020      H1049   0.991       .  S
Zr1021     O1024   2.438       .  S
Zr1021     O1025   2.438       .  S
Zr1021     O1026   2.532       .  S
O1022      C1027   1.270       .  A
O1023      H1040   0.990       .  S
O1023      H1055   0.990       .  S
O1024      H1041   0.990       .  S
O1025      H1045   0.990       .  S
O1025      H1054   0.990       .  S
O1026      C1027   1.302       .  A
C1027      C3474   1.502       .  S
O1028      H1047   0.989       .  S
O1028      H1051   0.990       .  S
O1029      H1043   0.990       .  S
O1029      H1050   0.990       .  S
O1030      C1034   1.286       .  A
O1031      C1034   1.281       .  A
O1032      H1042   0.990       .  S
O1033      H1046   0.990       .  S
C1034      C3510   1.465       .  S
Zr1057     O1058   2.442       .  S
Zr1057     O1059   2.370       .  S
Zr1057     O1060   2.452       .  S
Zr1057     O1063   2.420       .  S
Zr1057     O1065   2.379       .  S
Zr1057     O1066   2.394       .  S
Zr1057     O1067   2.389       .  S
Zr1057     O1068   2.394       .  S
O1058      H1114   0.990       .  S
O1058      H1122   0.990       .  S
O1059      C1079   1.273       .  A
O1060      C1081   1.287       .  A
O1061     Zr1071   2.401       .  S
O1061      C1080   1.280       .  A
O1062     Zr1070   2.379       .  S
O1062      C1081   1.274       .  A
O1063      C1080   1.282       .  A
O1064     Zr1072   2.526       .  S
O1064      C1079   1.300       .  A
O1065     Zr1070   2.383       .  S
O1065     Zr1072   2.360       .  S
O1066     Zr1071   2.384       .  S
O1066     Zr1072   2.355       .  S
O1066      H1101   0.964       .  S
O1067     Zr1070   2.408       .  S
O1067     Zr1087   2.373       .  S
O1067      H1104   0.965       .  S
O1068     Zr1071   2.397       .  S
O1068     Zr1087   2.371       .  S
Zr1069     O1094   2.436   1_565  S
Zr1069     O1088   2.471       .  S
Zr1069     O1096   2.472       .  S
Zr1069     O1084   2.471       .  S
Zr1069     O1076   2.438       .  S
Zr1069     O1077   2.359       .  S
Zr1069     O1078   2.378       .  S
Zr1069     O1075   2.344       .  S
Zr1070     O1089   2.442       .  S
Zr1070     O1082   2.433       .  S
Zr1070     O1083   2.394       .  S
Zr1070     O1076   2.389       .  S
Zr1070     O1077   2.381       .  S
Zr1071     O1073   2.430       .  S
Zr1071     O1095   2.437       .  S
Zr1071     O1097   2.421       .  S
Zr1071     O1078   2.389       .  S
Zr1071     O1075   2.275       .  S
Zr1072     O1098   2.439       .  S
Zr1072     O1099   2.439       .  S
Zr1072     O1074   2.434       .  S
Zr1072     O1076   2.435       .  S
Zr1072     O1075   2.344       .  S
O1073      H1110   0.991       .  S
O1074      H1105   0.990       .  S
O1074      H1119   0.990       .  S
O1076      H1102   0.966       .  S
O1077     Zr1087   2.379       .  S
O1078     Zr1087   2.350       .  S
O1078      H1103   0.965       .  S
C1079      C3457   1.511       .  S
C1080      C3486   1.463       .  S
C1081      C3514   1.451       .  S
O1082      H1118   0.990       .  S
O1083      C1085   1.273       .  A
O1084      C1085   1.288       .  A
C1085      C3461   1.488       .  S
O1086     Zr1087   2.439       .  S
O1086      H1115   0.990       .  S
Zr1087     O1090   2.429       .  S
Zr1087     O1091   2.442       .  S
Zr1087     O1092   2.403       .  S
O1088      C1093   1.291       .  A
O1089      H1106   0.990       .  S
O1089      H1121   0.990       .  S
O1090      H1107   0.990       .  S
O1091      H1111   0.989       .  S
O1091      H1120   0.990       .  S
O1092      C1093   1.278       .  A
C1093      C3470   1.484       .  S
O1094      H1113   0.990       .  S
O1094      H1117   0.990       .  S
O1095      H1109   0.990       .  S
O1095      H1116   0.991       .  S
O1096      C1100   1.291       .  A
O1097      C1100   1.284       .  A
O1098      H1108   0.991       .  S
O1099      H1112   0.990       .  S
C1100      C3465   1.493   1_565  S
Zr1123     O1124   2.441       .  S
Zr1123     O1125   2.415       .  S
Zr1123     O1126   2.431       .  S
Zr1123     O1129   2.444       .  S
Zr1123     O1131   2.377       .  S
Zr1123     O1132   2.391       .  S
Zr1123     O1133   2.398       .  S
Zr1123     O1134   2.409       .  S
O1124      H1180   0.991       .  S
O1124      H1188   0.990       .  S
O1125      C1145   1.269       .  A
O1126      C1147   1.283       .  A
O1127     Zr1137   2.429       .  S
O1127      C1146   1.283       .  A
O1128     Zr1136   2.439       .  S
O1128      C1147   1.286       .  A
O1129      C1146   1.286       .  A
O1130     Zr1138   2.447       .  S
O1130      C1145   1.279       .  A
O1131     Zr1136   2.376       .  S
O1131     Zr1138   2.385       .  S
O1132     Zr1137   2.384       .  S
O1132     Zr1138   2.377       .  S
O1132      H1167   0.966       .  S
O1133     Zr1136   2.400       .  S
O1133     Zr1153   2.360       .  S
O1133      H1170   0.962       .  S
O1134     Zr1137   2.396       .  S
O1134     Zr1153   2.399       .  S
Zr1135     O1160   2.436       .  S
Zr1135     O1154   2.448       .  S
Zr1135     O1162   2.451       .  S
Zr1135     O1150   2.465       .  S
Zr1135     O1141   2.417       .  S
Zr1135     O1142   2.424       .  S
Zr1135     O1143   2.375       .  S
Zr1135     O1144   2.381       .  S
Zr1136     O1155   2.439       .  S
Zr1136     O1148   2.433       .  S
Zr1136     O1149   2.405       .  S
Zr1136     O1142   2.408       .  S
Zr1136     O1143   2.391       .  S
Zr1137     O1139   2.435       .  S
Zr1137     O1161   2.438       .  S
Zr1137     O1163   2.425       .  S
Zr1137     O1141   2.395       .  S
Zr1137     O1144   2.379       .  S
Zr1138     O1164   2.436       .  S
Zr1138     O1165   2.435       .  S
Zr1138     O1140   2.437       .  S
Zr1138     O1141   2.409       .  S
Zr1138     O1142   2.408       .  S
O1139      H1176   0.990       .  S
O1140      H1171   0.990       .  S
O1140      H1185   0.990       .  S
O1142      H1168   0.965       .  S
O1143     Zr1153   2.358       .  S
O1144     Zr1153   2.360       .  S
O1144      H1169   0.965       .  S
C1145      C3453   1.464       .  S
C1146      C3437   1.471       .  S
C1147      C3433   1.465       .  S
O1148      H1184   0.990       .  S
O1149      C1151   1.274       .  A
O1150      C1151   1.287       .  A
C1151      C3446   1.480       .  S
O1152     Zr1153   2.435       .  S
O1152      H1181   0.990       .  S
Zr1153     O1156   2.439       .  S
Zr1153     O1157   2.433       .  S
Zr1153     O1158   2.423       .  S
O1154      C1159   1.286       .  A
O1155      H1172   0.990       .  S
O1155      H1187   0.990       .  S
O1156      H1173   0.990       .  S
O1157      H1177   0.989       .  S
O1157      H1186   0.990       .  S
O1158      C1159   1.283       .  A
C1159      C3441   1.475       .  S
O1160      H1179   0.990       .  S
O1160      H1183   0.990       .  S
O1161      H1175   0.990       .  S
O1161      H1182   0.990       .  S
O1162      C1166   1.290       .  A
O1163      C1166   1.284       .  A
O1164      H1174   0.990       .  S
O1165      H1178   0.990       .  S
C1166      C3449   1.478       .  S
Zr1189     O1190   2.435       .  S
Zr1189     O1191   2.435       .  S
Zr1189     O1192   2.446       .  S
Zr1189     O1195   2.493       .  S
Zr1189     O1197   2.372       .  S
Zr1189     O1198   2.373       .  S
Zr1189     O1199   2.427       .  S
Zr1189     O1200   2.411       .  S
O1190      H1246   0.990       .  S
O1190      H1254   0.990       .  S
O1191      C1211   1.286       .  A
O1192      C1213   1.290       .  A
O1193     Zr1203   2.397       .  S
O1193      C1212   1.280       .  A
O1194     Zr1202   2.427       .  S
O1194      C1213   1.281       .  A
O1195      C1212   1.297       .  A
O1196     Zr1204   2.437       .  S
O1196      C1211   1.285       .  A
O1197     Zr1202   2.375       .  S
O1197     Zr1204   2.358       .  S
O1198     Zr1203   2.387       .  S
O1198     Zr1204   2.361       .  S
O1198      H1233   0.963       .  S
O1199     Zr1202   2.405       .  S
O1199     Zr1219   2.423       .  S
O1199      H1236   0.967       .  S
O1200     Zr1203   2.398       .  S
O1200     Zr1219   2.430       .  S
Zr1201     O1226   2.425       .  S
Zr1201     O1220   2.362       .  S
Zr1201     O1228   2.427       .  S
Zr1201     O1216   2.394       .  S
Zr1201     O1207   2.384       .  S
Zr1201     O1208   2.395       .  S
Zr1201     O1209   2.370       .  S
Zr1201     O1210   2.368       .  S
Zr1202     O1221   2.435       .  S
Zr1202     O1214   2.434       .  S
Zr1202     O1215   2.437       .  S
Zr1202     O1208   2.399       .  S
Zr1202     O1209   2.375       .  S
Zr1203     O1205   2.434       .  S
Zr1203     O1227   2.436       .  S
Zr1203     O1229   2.429       .  S
Zr1203     O1207   2.384       .  S
Zr1203     O1210   2.365       .  S
Zr1204     O1230   2.430       .  S
Zr1204     O1231   2.428       .  S
Zr1204     O1206   2.434       .  S
Zr1204     O1207   2.401       .  S
Zr1204     O1208   2.401       .  S
O1205      H1242   0.990       .  S
O1206      H1237   0.990       .  S
O1206      H1251   0.989       .  S
O1208      H1234   0.967       .  S
O1209     Zr1219   2.362       .  S
O1210     Zr1219   2.334       .  S
O1210      H1235   0.962       .  S
C1211      C3438   1.477       .  S
C1212      C3421   1.489       .  S
C1213      C3426   1.471       .  S
O1214      H1250   0.990       .  S
O1215      C1217   1.284       .  A
O1216      C1217   1.282       .  A
C1217      C3413   1.473       .  S
O1218     Zr1219   2.439       .  S
O1218      H1247   0.990       .  S
Zr1219     O1222   2.435       .  S
Zr1219     O1223   2.439       .  S
Zr1219     O1224   2.522       .  S
O1220      C1225   1.274       .  A
O1221      H1238   0.990       .  S
O1221      H1253   0.990       .  S
O1222      H1239   0.990       .  S
O1223      H1243   0.990       .  S
O1223      H1252   0.990       .  S
O1224      C1225   1.300       .  A
C1225      C3429   1.498       .  S
O1226      H1245   0.990       .  S
O1226      H1249   0.990       .  S
O1227      H1241   0.990       .  S
O1227      H1248   0.990       .  S
O1228      C1232   1.284       .  A
O1229      C1232   1.286       .  A
O1230      H1240   0.989       .  S
O1231      H1244   0.990       .  S
C1232      C3418   1.467       .  S
Zr1255     O1256   2.435       .  S
Zr1255     O1257   2.411       .  S
Zr1255     O1258   2.487       .  S
Zr1255     O1261   2.491       .  S
Zr1255     O1263   2.368       .  S
Zr1255     O1264   2.380       .  S
Zr1255     O1265   2.435       .  S
Zr1255     O1266   2.425       .  S
O1256      H1312   0.990       .  S
O1256      H1320   0.990       .  S
O1257      C1277   1.280       .  A
O1258      C1279   1.294       .  A
O1259     Zr1269   2.387       .  S
O1259      C1278   1.277       .  A
O1260     Zr1268   2.441       .  S
O1260      C1279   1.286       .  A
O1261      C1278   1.295       .  A
O1262     Zr1270   2.439       .  S
O1262      C1277   1.285       .  A
O1263     Zr1268   2.366       .  S
O1263     Zr1270   2.340       .  S
O1264     Zr1269   2.387       .  S
O1264     Zr1270   2.346       .  S
O1264      H1299   0.963       .  S
O1265     Zr1268   2.400       .  S
O1265     Zr1285   2.428       .  S
O1265      H1302   0.966       .  S
O1266     Zr1269   2.395       .  S
O1266     Zr1285   2.435       .  S
Zr1267     O1292   2.435       .  S
Zr1267     O1286   2.351       .  S
Zr1267     O1294   2.437       .  S
Zr1267     O1282   2.410       .  S
Zr1267     O1273   2.377       .  S
Zr1267     O1274   2.398       .  S
Zr1267     O1275   2.384       .  S
Zr1267     O1276   2.369       .  S
Zr1268     O1287   2.435   1_455  S
Zr1268     O1280   2.436   1_455  S
Zr1268     O1281   2.425   1_455  S
Zr1268     O1274   2.403       .  S
Zr1268     O1275   2.382       .  S
Zr1269     O1271   2.435       .  S
Zr1269     O1293   2.439       .  S
Zr1269     O1295   2.411       .  S
Zr1269     O1273   2.394       .  S
Zr1269     O1276   2.371       .  S
Zr1270     O1296   2.433       .  S
Zr1270     O1297   2.423       .  S
Zr1270     O1272   2.439       .  S
Zr1270     O1273   2.404       .  S
Zr1270     O1274   2.379       .  S
O1271      H1308   0.990       .  S
O1272      H1303   0.990       .  S
O1272      H1317   0.990       .  S
O1274      H1300   0.966       .  S
O1275     Zr1285   2.366       .  S
O1276     Zr1285   2.360       .  S
O1276      H1301   0.966       .  S
C1277      C3434   1.462       .  S
C1278      C3406   1.475       .  S
C1279      C3402   1.493       .  S
O1280      H1316   0.991       .  S
O1281      C1283   1.284       .  A
O1282      C1283   1.279   1_455  A
C1283      C3397   1.466       .  S
O1284     Zr1285   2.439       .  S
O1284      H1313   0.991   1_455  S
Zr1285     O1288   2.437   1_455  S
Zr1285     O1289   2.440       .  S
Zr1285     O1290   2.501       .  S
O1286      C1291   1.271       .  A
O1287      H1304   0.990       .  S
O1287      H1319   0.990       .  S
O1288      H1305   0.990       .  S
O1289      H1309   0.990       .  S
O1289      H1318   0.990       .  S
O1290      C1291   1.295       .  A
C1291      C3409   1.481   1_455  S
O1292      H1311   0.989       .  S
O1292      H1315   0.990       .  S
O1293      H1307   0.990       .  S
O1293      H1314   0.990       .  S
O1294      C1298   1.285       .  A
O1295      C1298   1.281       .  A
O1296      H1306   0.990       .  S
O1297      H1310   0.990       .  S
C1298      C3414   1.471       .  S
Zr1321     O1322   2.436       .  S
Zr1321     O1323   2.449       .  S
Zr1321     O1324   2.487       .  S
Zr1321     O1327   2.488       .  S
Zr1321     O1329   2.371       .  S
Zr1321     O1330   2.380       .  S
Zr1321     O1331   2.442       .  S
Zr1321     O1332   2.436       .  S
O1322      H1378   0.990       .  S
O1322      H1386   0.990       .  S
O1323      C1343   1.286       .  A
O1324      C1345   1.295       .  A
O1325     Zr1335   2.395       .  S
O1325      C1344   1.277       .  A
O1326     Zr1334   2.416       .  S
O1326      C1345   1.281       .  A
O1327      C1344   1.295       .  A
O1328     Zr1336   2.414       .  S
O1328      C1343   1.280       .  A
O1329     Zr1334   2.387       .  S
O1329     Zr1336   2.359       .  S
O1330     Zr1335   2.386       .  S
O1330     Zr1336   2.361       .  S
O1330      H1365   0.966       .  S
O1331     Zr1334   2.391       .  S
O1331     Zr1351   2.437       .  S
O1331      H1368   0.967       .  S
O1332     Zr1335   2.391       .  S
O1332     Zr1351   2.437       .  S
Zr1333     O1358   2.438       .  S
Zr1333     O1352   2.362       .  S
Zr1333     O1360   2.420       .  S
Zr1333     O1348   2.389       .  S
Zr1333     O1339   2.379       .  S
Zr1333     O1340   2.390       .  S
Zr1333     O1341   2.381       .  S
Zr1333     O1342   2.368       .  S
Zr1334     O1353   2.433       .  S
Zr1334     O1346   2.436       .  S
Zr1334     O1347   2.427       .  S
Zr1334     O1340   2.403       .  S
Zr1334     O1341   2.375       .  S
Zr1335     O1337   2.435   1_455  S
Zr1335     O1359   2.439       .  S
Zr1335     O1361   2.419   1_455  S
Zr1335     O1339   2.393       .  S
Zr1335     O1342   2.370       .  S
Zr1336     O1362   2.433       .  S
Zr1336     O1363   2.428       .  S
Zr1336     O1338   2.438       .  S
Zr1336     O1339   2.397       .  S
Zr1336     O1340   2.379       .  S
O1337      H1374   0.990       .  S
O1338      H1369   0.990       .  S
O1338      H1383   0.989       .  S
O1340      H1366   0.963       .  S
O1341     Zr1351   2.359       .  S
O1342     Zr1351   2.362       .  S
O1342      H1367   0.967   1_455  S
C1343      C3442   1.473       .  S
C1344      C3385   1.487       .  S
C1345      C3389   1.494       .  S
O1346      H1382   0.990       .  S
O1347      C1349   1.283       .  A
O1348      C1349   1.280       .  A
C1349      C3417   1.461       .  S
O1350     Zr1351   2.440   1_655  S
O1350      H1379   0.990       .  S
Zr1351     O1354   2.437       .  S
Zr1351     O1355   2.440   1_455  S
Zr1351     O1356   2.521   1_455  S
O1352      C1357   1.273   1_455  A
O1353      H1370   0.990       .  S
O1353      H1385   0.990       .  S
O1354      H1371   0.990       .  S
O1355      H1375   0.990       .  S
O1355      H1384   0.990       .  S
O1356      C1357   1.300       .  A
C1357      C3394   1.493       .  S
O1358      H1377   0.990       .  S
O1358      H1381   0.990       .  S
O1359      H1373   0.990   1_455  S
O1359      H1380   0.990       .  S
O1360      C1364   1.284   1_455  A
O1361      C1364   1.280       .  A
O1362      H1372   0.990       .  S
O1363      H1376   0.990       .  S
C1364      C3398   1.470       .  S
Zr1387     O1388   2.437       .  S
Zr1387     O1389   2.481       .  S
Zr1387     O1390   2.431       .  S
Zr1387     O1393   2.503       .  S
Zr1387     O1395   2.387       .  S
Zr1387     O1396   2.392       .  S
Zr1387     O1397   2.433       .  S
Zr1387     O1398   2.372       .  S
O1388      H1444   0.989       .  S
O1388      H1452   0.987       .  S
O1389      C1409   1.293       .  A
O1390      C1411   1.283       .  A
O1391     Zr1401   2.446       .  S
O1391      C1410   1.286       .  A
O1392     Zr1400   2.448       .  S
O1392      C1411   1.287       .  A
O1393      C1410   1.295       .  A
O1394     Zr1402   2.393       .  S
O1394      C1409   1.274       .  A
O1395     Zr1400   2.397       .  S
O1395     Zr1402   2.386       .  S
O1396     Zr1401   2.397       .  S
O1396     Zr1402   2.398       .  S
O1396      H1431   0.966       .  S
O1397     Zr1400   2.405       .  S
O1397     Zr1417   2.399       .  S
O1397      H1434   0.965       .  S
O1398     Zr1401   2.364       .  S
O1398     Zr1417   2.367       .  S
Zr1399     O1424   2.441       .  S
Zr1399     O1418   2.436       .  S
Zr1399     O1426   2.437       .  S
Zr1399     O1414   2.461       .  S
Zr1399     O1405   2.406       .  S
Zr1399     O1406   2.399       .  S
Zr1399     O1407   2.377       .  S
Zr1399     O1408   2.379       .  S
Zr1400     O1419   2.437       .  S
Zr1400     O1412   2.435       .  S
Zr1400     O1413   2.455       .  S
Zr1400     O1406   2.402       .  S
Zr1400     O1407   2.400       .  S
Zr1401     O1403   2.439       .  S
Zr1401     O1425   2.439       .  S
Zr1401     O1427   2.434       .  S
Zr1401     O1405   2.389       .  S
Zr1401     O1408   2.403       .  S
Zr1402     O1428   2.437       .  S
Zr1402     O1429   2.436       .  S
Zr1402     O1404   2.437       .  S
Zr1402     O1405   2.396       .  S
Zr1402     O1406   2.385       .  S
O1403      H1440   0.990       .  S
O1404      H1435   0.990       .  S
O1404      H1449   0.990       .  S
O1406      H1432   0.965       .  S
O1407     Zr1417   2.378       .  S
O1408     Zr1417   2.377       .  S
O1408      H1433   0.967       .  S
C1409      C3405   1.479       .  S
C1410      C3425   1.484       .  S
C1411      C3454   1.470       .  S
O1412      H1448   0.990       .  S
O1413      C1415   1.286       .  A
O1414      C1415   1.292       .  A
C1415      C3473   1.486       .  S
O1416     Zr1417   2.440       .  S
O1416      H1445   0.990       .  S
Zr1417     O1420   2.437       .  S
Zr1417     O1421   2.438       .  S
Zr1417     O1422   2.423       .  S
O1418      C1423   1.286       .  A
O1419      H1436   0.990       .  S
O1419      H1451   0.990       .  S
O1420      H1437   0.989       .  S
O1421      H1441   0.990       .  S
O1421      H1450   0.990       .  S
O1422      C1423   1.281       .  A
C1423      C3497   1.472       .  S
O1424      H1443   0.990       .  S
O1424      H1447   0.990       .  S
O1425      H1439   0.990       .  S
O1425      H1446   0.990       .  S
O1426      C1430   1.286       .  A
O1427      C1430   1.283       .  A
O1428      H1438   0.990       .  S
O1429      H1442   0.990       .  S
C1430      C3521   1.470       .  S
Zr1453     O1454   2.443       .  S
Zr1453     O1455   2.453       .  S
Zr1453     O1456   2.413       .  S
Zr1453     O1459   2.442       .  S
Zr1453     O1461   2.384       .  S
Zr1453     O1462   2.374       .  S
Zr1453     O1463   2.411       .  S
Zr1453     O1464   2.399       .  S
O1454      H1510   0.991       .  S
O1454      H1518   0.990       .  S
O1455      C1475   1.287       .  A
O1456      C1477   1.280       .  A
O1457     Zr1467   2.461       .  S
O1457      C1476   1.289       .  A
O1458     Zr1466   2.466       .  S
O1458      C1477   1.290       .  A
O1459      C1476   1.285       .  A
O1460     Zr1468   2.428       .  S
O1460      C1475   1.281       .  A
O1461     Zr1466   2.403       .  S
O1461     Zr1468   2.378       .  S
O1462     Zr1467   2.392       .  S
O1462     Zr1468   2.380       .  S
O1462      H1497   0.964       .  S
O1463     Zr1466   2.408       .  S
O1463     Zr1483   2.387       .  S
O1463      H1500   0.965       .  S
O1464     Zr1467   2.393       .  S
O1464     Zr1483   2.403       .  S
Zr1465     O1490   2.444       .  S
Zr1465     O1484   2.472       .  S
Zr1465     O1492   2.465       .  S
Zr1465     O1480   2.443       .  S
Zr1465     O1471   2.408       .  S
Zr1465     O1472   2.415       .  S
Zr1465     O1473   2.379       .  S
Zr1465     O1474   2.385       .  S
Zr1466     O1485   2.434       .  S
Zr1466     O1478   2.435       .  S
Zr1466     O1479   2.475       .  S
Zr1466     O1472   2.402       .  S
Zr1466     O1473   2.397       .  S
Zr1467     O1469   2.435       .  S
Zr1467     O1491   2.437       .  S
Zr1467     O1493   2.435       .  S
Zr1467     O1471   2.400       .  S
Zr1467     O1474   2.413       .  S
Zr1468     O1494   2.437       .  S
Zr1468     O1495   2.437       .  S
Zr1468     O1470   2.436       .  S
Zr1468     O1471   2.403       .  S
Zr1468     O1472   2.387       .  S
O1469      H1506   0.990       .  S
O1470      H1501   0.990       .  S
O1470      H1515   0.990       .  S
O1472      H1498   0.965       .  S
O1473     Zr1483   2.383       .  S
O1474     Zr1483   2.393       .  S
O1474      H1499   0.967       .  S
C1475      C3422   1.481       .  S
C1476      C3390   1.491       .  S
C1477      C3450   1.478       .  S
O1478      H1514   0.990       .  S
O1479      C1481   1.293       .  A
O1480      C1481   1.286       .  A
C1481      C3642   1.490       .  S
O1482     Zr1483   2.439       .  S
O1482      H1511   0.990       .  S
Zr1483     O1486   2.439       .  S
Zr1483     O1487   2.440       .  S
Zr1483     O1488   2.421       .  S
O1484      C1489   1.292       .  A
O1485      H1502   0.990       .  S
O1485      H1517   0.990       .  S
O1486      H1503   0.990       .  S
O1487      H1507   0.990       .  S
O1487      H1516   0.990       .  S
O1488      C1489   1.278       .  A
C1489      C3661   1.486       .  S
O1490      H1509   0.990       .  S
O1490      H1513   0.990       .  S
O1491      H1505   0.990       .  S
O1491      H1512   0.990       .  S
O1492      C1496   1.289       .  A
O1493      C1496   1.283       .  A
O1494      H1504   0.990       .  S
O1495      H1508   0.990       .  S
C1496      C3621   1.480       .  S
Zr1519     O1520   2.433       .  S
Zr1519     O1521   2.461       .  S
Zr1519     O1522   2.470       .  S
Zr1519     O1525   2.473       .  S
Zr1519     O1527   2.373       .  S
Zr1519     O1528   2.380       .  S
Zr1519     O1529   2.433       .  S
Zr1519     O1530   2.421       .  S
O1520      H1576   0.990       .  S
O1520      H1584   0.990       .  S
O1521      C1541   1.287       .  A
O1522      C1543   1.291       .  A
O1523     Zr1533   2.404       .  S
O1523      C1542   1.276       .  A
O1524     Zr1532   2.401       .  S
O1524      C1543   1.279       .  A
O1525      C1542   1.294       .  A
O1526     Zr1534   2.397       .  S
O1526      C1541   1.277       .  A
O1527     Zr1532   2.392       .  S
O1527     Zr1534   2.370       .  S
O1528     Zr1533   2.393       .  S
O1528     Zr1534   2.371       .  S
O1528      H1563   0.966       .  S
O1529     Zr1532   2.392       .  S
O1529     Zr1549   2.429       .  S
O1529      H1566   0.966       .  S
O1530     Zr1533   2.389       .  S
O1530     Zr1549   2.415       .  S
Zr1531     O1556   2.444       .  S
Zr1531     O1550   2.372       .  S
Zr1531     O1558   2.410       .  S
Zr1531     O1546   2.423       .  S
Zr1531     O1537   2.389       .  S
Zr1531     O1538   2.381       .  S
Zr1531     O1539   2.378       .  S
Zr1531     O1540   2.379       .  S
Zr1532     O1551   2.432       .  S
Zr1532     O1544   2.427       .  S
Zr1532     O1545   2.421       .  S
Zr1532     O1538   2.396       .  S
Zr1532     O1539   2.373       .  S
Zr1533     O1535   2.438       .  S
Zr1533     O1557   2.436       .  S
Zr1533     O1559   2.417       .  S
Zr1533     O1537   2.390       .  S
Zr1533     O1540   2.373       .  S
Zr1534     O1560   2.436       .  S
Zr1534     O1561   2.433       .  S
Zr1534     O1536   2.438       .  S
Zr1534     O1537   2.384       .  S
Zr1534     O1538   2.374       .  S
O1535      H1572   0.990       .  S
O1536      H1567   0.990       .  S
O1536      H1581   0.990       .  S
O1538      H1564   0.964       .  S
O1539     Zr1549   2.373       .  S
O1540     Zr1549   2.365       .  S
O1540      H1565   0.964       .  S
C1541      C3365   1.473       .  S
C1542      C3373   1.480       .  S
C1543      C3381   1.483       .  S
O1544      H1580   0.990       .  S
O1545      C1547   1.283       .  A
O1546      C1547   1.280       .  A
C1547      C3361   1.466       .  S
O1548     Zr1549   2.438       .  S
O1548      H1577   0.991       .  S
Zr1549     O1552   2.436       .  S
Zr1549     O1553   2.439       .  S
Zr1549     O1554   2.478       .  S
O1550      C1555   1.273       .  A
O1551      H1568   0.990       .  S
O1551      H1583   0.990       .  S
O1552      H1569   0.990       .  S
O1553      H1573   0.990       .  S
O1553      H1582   0.990       .  S
O1554      C1555   1.291       .  A
C1555      C3377   1.465       .  S
O1556      H1575   0.989       .  S
O1556      H1579   0.989       .  S
O1557      H1571   0.990       .  S
O1557      H1578   0.990       .  S
O1558      C1562   1.279       .  A
O1559      C1562   1.284       .  A
O1560      H1570   0.990       .  S
O1561      H1574   0.990       .  S
C1562      C3369   1.463       .  S
Zr1585     O1586   2.433       .  S
Zr1585     O1587   2.439       .  S
Zr1585     O1588   2.464       .  S
Zr1585     O1591   2.488       .  S
Zr1585     O1593   2.377       .  S
Zr1585     O1594   2.380       .  S
Zr1585     O1595   2.438       .  S
Zr1585     O1596   2.424       .  S
O1586      H1642   0.990       .  S
O1586      H1650   0.990       .  S
O1587      C1607   1.284       .  A
O1588      C1609   1.291       .  A
O1589     Zr1599   2.390       .  S
O1589      C1608   1.277       .  A
O1590     Zr1598   2.418       .  S
O1590      C1609   1.282       .  A
O1591      C1608   1.294       .  A
O1592     Zr1600   2.428       .  S
O1592      C1607   1.283       .  A
O1593     Zr1598   2.383       .  S
O1593     Zr1600   2.360       .  S
O1594     Zr1599   2.387       .  S
O1594     Zr1600   2.357       .  S
O1594      H1629   0.966       .  S
O1595     Zr1598   2.395       .  S
O1595     Zr1615   2.426       .  S
O1595      H1632   0.966       .  S
O1596     Zr1599   2.395       .  S
O1596     Zr1615   2.445       .  S
Zr1597     O1622   2.434       .  S
Zr1597     O1616   2.383       .  S
Zr1597     O1624   2.436       .  S
Zr1597     O1612   2.423       .  S
Zr1597     O1603   2.385       .  S
Zr1597     O1604   2.398       .  S
Zr1597     O1605   2.387       .  S
Zr1597     O1606   2.375       .  S
Zr1598     O1617   2.435       .  S
Zr1598     O1610   2.434       .  S
Zr1598     O1611   2.416       .  S
Zr1598     O1604   2.402       .  S
Zr1598     O1605   2.374       .  S
Zr1599     O1601   2.434   1_554  S
Zr1599     O1623   2.441       .  S
Zr1599     O1625   2.417   1_554  S
Zr1599     O1603   2.396       .  S
Zr1599     O1606   2.365       .  S
Zr1600     O1626   2.429       .  S
Zr1600     O1627   2.430       .  S
Zr1600     O1602   2.436       .  S
Zr1600     O1603   2.401       .  S
Zr1600     O1604   2.369       .  S
O1601      H1638   0.990       .  S
O1602      H1633   0.990       .  S
O1602      H1647   0.990       .  S
O1604      H1630   0.966       .  S
O1605     Zr1615   2.361       .  S
O1606     Zr1615   2.376       .  S
O1606      H1631   0.966   1_554  S
C1607      C3366   1.473       .  S
C1608      C3358   1.482       .  S
C1609      C3353   1.484       .  S
O1610      H1646   0.990       .  S
O1611      C1613   1.281       .  A
O1612      C1613   1.287       .  A
C1613      C3345   1.467       .  S
O1614     Zr1615   2.439   1_556  S
O1614      H1643   0.991       .  S
Zr1615     O1618   2.436       .  S
Zr1615     O1619   2.442   1_554  S
Zr1615     O1620   2.511   1_554  S
O1616      C1621   1.265   1_554  A
O1617      H1634   0.990       .  S
O1617      H1649   0.990       .  S
O1618      H1635   0.990   1_554  S
O1619      H1639   0.990       .  S
O1619      H1648   0.990       .  S
O1620      C1621   1.291       .  A
C1621      C3349   1.498       .  S
O1622      H1641   0.990       .  S
O1622      H1645   0.989       .  S
O1623      H1637   0.990       .  S
O1623      H1644   0.990       .  S
O1624      C1628   1.287       .  A
O1625      C1628   1.280   1_556  A
O1626      H1636   0.989       .  S
O1627      H1640   0.990       .  S
C1628      C3341   1.474   1_554  S
Zr1651     O1652   2.433       .  S
Zr1651     O1653   2.393       .  S
Zr1651     O1654   2.518       .  S
Zr1651     O1657   2.505       .  S
Zr1651     O1659   2.361       .  S
Zr1651     O1660   2.383       .  S
Zr1651     O1661   2.434       .  S
Zr1651     O1662   2.418       .  S
O1652      H1708   0.990       .  S
O1652      H1716   0.990       .  S
O1653      C1673   1.277       .  A
O1654      C1675   1.301       .  A
O1655     Zr1665   2.396       .  S
O1655      C1674   1.279       .  A
O1656     Zr1664   2.431       .  S
O1656      C1675   1.284       .  A
O1657      C1674   1.299       .  A
O1658     Zr1666   2.446       .  S
O1658      C1673   1.286       .  A
O1659     Zr1664   2.371       .  S
O1659     Zr1666   2.337       .  S
O1660     Zr1665   2.384       .  S
O1660     Zr1666   2.360       .  S
O1660      H1695   0.965       .  S
O1661     Zr1664   2.403       .  S
O1661     Zr1681   2.431       .  S
O1661      H1698   0.965       .  S
O1662     Zr1665   2.404       .  S
O1662     Zr1681   2.428       .  S
Zr1663     O1688   2.415       .  S
Zr1663     O1682   2.363       .  S
Zr1663     O1690   2.446       .  S
Zr1663     O1678   2.409       .  S
Zr1663     O1669   2.391       .  S
Zr1663     O1670   2.399       .  S
Zr1663     O1671   2.383       .  S
Zr1663     O1672   2.366       .  S
Zr1664     O1683   2.436   1_554  S
Zr1664     O1676   2.439   1_554  S
Zr1664     O1677   2.438       .  S
Zr1664     O1670   2.406       .  S
Zr1664     O1671   2.375       .  S
Zr1665     O1667   2.435       .  S
Zr1665     O1689   2.433       .  S
Zr1665     O1691   2.432       .  S
Zr1665     O1669   2.388       .  S
Zr1665     O1672   2.372       .  S
Zr1666     O1692   2.430       .  S
Zr1666     O1693   2.425       .  S
Zr1666     O1668   2.437       .  S
Zr1666     O1669   2.410       .  S
Zr1666     O1670   2.391       .  S
O1667      H1704   0.991       .  S
O1668      H1699   0.990       .  S
O1668      H1713   0.990       .  S
O1670      H1696   0.968       .  S
O1671     Zr1681   2.374       .  S
O1672     Zr1681   2.354       .  S
O1672      H1697   0.964       .  S
C1673      C3362   1.457       .  S
C1674      C3333   1.494       .  S
C1675      C3337   1.506       .  S
O1676      H1712   0.991       .  S
O1677      C1679   1.287       .  A
O1678      C1679   1.278       .  A
C1679      C3342   1.469   1_554  S
O1680     Zr1681   2.440       .  S
O1680      H1709   0.990       .  S
Zr1681     O1684   2.439   1_554  S
Zr1681     O1685   2.439       .  S
Zr1681     O1686   2.504       .  S
O1682      C1687   1.273       .  A
O1683      H1700   0.990       .  S
O1683      H1715   0.990       .  S
O1684      H1701   0.990       .  S
O1685      H1705   0.990       .  S
O1685      H1714   0.990       .  S
O1686      C1687   1.296       .  A
C1687      C3329   1.487       .  S
O1688      H1707   0.988       .  S
O1688      H1711   0.988       .  S
O1689      H1703   0.990       .  S
O1689      H1710   0.990       .  S
O1690      C1694   1.286       .  A
O1691      C1694   1.284       .  A
O1692      H1702   0.989       .  S
O1693      H1706   0.990       .  S
C1694      C3325   1.474       .  S
Zr1717     O1718   2.434       .  S
Zr1717     O1719   2.394       .  S
Zr1717     O1720   2.492       .  S
Zr1717     O1723   2.484       .  S
Zr1717     O1725   2.363       .  S
Zr1717     O1726   2.388       .  S
Zr1717     O1727   2.426       .  S
Zr1717     O1728   2.415       .  S
O1718      H1774   0.990       .  S
O1718      H1782   0.990       .  S
O1719      C1739   1.276       .  A
O1720      C1741   1.295       .  A
O1721     Zr1731   2.403       .  S
O1721      C1740   1.281       .  A
O1722     Zr1730   2.404       .  S
O1722      C1741   1.280       .  A
O1723      C1740   1.295       .  A
O1724     Zr1732   2.448       .  S
O1724      C1739   1.290       .  A
O1725     Zr1730   2.366       .  S
O1725     Zr1732   2.331       .  S
O1726     Zr1731   2.391       .  S
O1726     Zr1732   2.354       .  S
O1726      H1761   0.965       .  S
O1727     Zr1730   2.411       .  S
O1727     Zr1747   2.422       .  S
O1727      H1764   0.966       .  S
O1728     Zr1731   2.406       .  S
O1728     Zr1747   2.421       .  S
Zr1729     O1754   2.421       .  S
Zr1729     O1748   2.384       .  S
Zr1729     O1756   2.410       .  S
Zr1729     O1744   2.401       .  S
Zr1729     O1735   2.385       .  S
Zr1729     O1736   2.385       .  S
Zr1729     O1737   2.375       .  S
Zr1729     O1738   2.385       .  S
Zr1730     O1749   2.435       .  S
Zr1730     O1742   2.434       .  S
Zr1730     O1743   2.448       .  S
Zr1730     O1736   2.402       .  S
Zr1730     O1737   2.364       .  S
Zr1731     O1733   2.434       .  S
Zr1731     O1755   2.436       .  S
Zr1731     O1757   2.449       .  S
Zr1731     O1735   2.386       .  S
Zr1731     O1738   2.362       .  S
Zr1732     O1758   2.433       .  S
Zr1732     O1759   2.424       .  S
Zr1732     O1734   2.431       .  S
Zr1732     O1735   2.390       .  S
Zr1732     O1736   2.391       .  S
O1733      H1770   0.990       .  S
O1734      H1765   0.989       .  S
O1734      H1779   0.990       .  S
O1736      H1762   0.967       .  S
O1737     Zr1747   2.379       .  S
O1738     Zr1747   2.372       .  S
O1738      H1763   0.965       .  S
C1739      C3370   1.463       .  S
C1740      C3318   1.483       .  S
C1741      C3322   1.480       .  S
O1742      H1778   0.990       .  S
O1743      C1745   1.285       .  A
O1744      C1745   1.279       .  A
C1745      C3326   1.467       .  S
O1746     Zr1747   2.439       .  S
O1746      H1775   0.990       .  S
Zr1747     O1750   2.436       .  S
Zr1747     O1751   2.437       .  S
Zr1747     O1752   2.473       .  S
O1748      C1753   1.264       .  A
O1749      H1766   0.990       .  S
O1749      H1781   0.990       .  S
O1750      H1767   0.990       .  S
O1751      H1771   0.990       .  S
O1751      H1780   0.990       .  S
O1752      C1753   1.282       .  A
C1753      C3313   1.479       .  S
O1754      H1773   0.989       .  S
O1754      H1777   0.989       .  S
O1755      H1769   0.990       .  S
O1755      H1776   0.990       .  S
O1756      C1760   1.280       .  A
O1757      C1760   1.291       .  A
O1758      H1768   0.990       .  S
O1759      H1772   0.990       .  S
C1760      C3346   1.471       .  S
Zr1783     O1784   2.433       .  S
Zr1783     O1785   2.405       .  S
Zr1783     O1786   2.531       .  S
Zr1783     O1789   2.512       .  S
Zr1783     O1791   2.353       .  S
Zr1783     O1792   2.383       .  S
Zr1783     O1793   2.436       .  S
Zr1783     O1794   2.428       .  S
O1784      H1840   0.990       .  S
O1784      H1848   0.990       .  S
O1785      C1805   1.278       .  A
O1786      C1807   1.303       .  A
O1787     Zr1797   2.397       .  S
O1787      C1806   1.278       .  A
O1788     Zr1796   2.369       .  S
O1788      C1807   1.274       .  A
O1789      C1806   1.301       .  A
O1790     Zr1798   2.470       .  S
O1790      C1805   1.290       .  A
O1791     Zr1796   2.373       .  S
O1791     Zr1798   2.338       .  S
O1792     Zr1797   2.391       .  S
O1792     Zr1798   2.356       .  S
O1792      H1827   0.963       .  S
O1793     Zr1796   2.404       .  S
O1793     Zr1813   2.431       .  S
O1793      H1830   0.967       .  S
O1794     Zr1797   2.400       .  S
O1794     Zr1813   2.429       .  S
Zr1795     O1820   2.415       .  S
Zr1795     O1814   2.358       .  S
Zr1795     O1822   2.405       .  S
Zr1795     O1810   2.438       .  S
Zr1795     O1801   2.389       .  S
Zr1795     O1802   2.384       .  S
Zr1795     O1803   2.359       .  S
Zr1795     O1804   2.379       .  S
Zr1796     O1815   2.435       .  S
Zr1796     O1808   2.436       .  S
Zr1796     O1809   2.427       .  S
Zr1796     O1802   2.397       .  S
Zr1796     O1803   2.350       .  S
Zr1797     O1799   2.434       .  S
Zr1797     O1821   2.435       .  S
Zr1797     O1823   2.437       .  S
Zr1797     O1801   2.386       .  S
Zr1797     O1804   2.357       .  S
Zr1798     O1824   2.436       .  S
Zr1798     O1825   2.429       .  S
Zr1798     O1800   2.418       .  S
Zr1798     O1801   2.402       .  S
Zr1798     O1802   2.421       .  S
O1799      H1836   0.990       .  S
O1800      H1831   0.988       .  S
O1800      H1845   0.990       .  S
O1802      H1828   0.964       .  S
O1803     Zr1813   2.354       .  S
O1804     Zr1813   2.343       .  S
O1804      H1829   0.964       .  S
C1805      C3290   1.478       .  S
C1806      C3305   1.494       .  S
C1807      C3310   1.487       .  S
O1808      H1844   0.990       .  S
O1809      C1811   1.282       .  A
O1810      C1811   1.285       .  A
C1811      C3293   1.471       .  S
O1812     Zr1813   2.438       .  S
O1812      H1841   0.991       .  S
Zr1813     O1816   2.438       .  S
Zr1813     O1817   2.439       .  S
Zr1813     O1818   2.517       .  S
O1814      C1819   1.273       .  A
O1815      H1832   0.990       .  S
O1815      H1847   0.990       .  S
O1816      H1833   0.990       .  S
O1817      H1837   0.990       .  S
O1817      H1846   0.989       .  S
O1818      C1819   1.299       .  A
C1819      C3301   1.499       .  S
O1820      H1839   0.990       .  S
O1820      H1843   0.989       .  S
O1821      H1835   0.990       .  S
O1821      H1842   0.990       .  S
O1822      C1826   1.280       .  A
O1823      C1826   1.288       .  A
O1824      H1834   0.990       .  S
O1825      H1838   0.990       .  S
C1826      C3297   1.464       .  S
Zr1849     O1850   2.435       .  S
Zr1849     O1851   2.438       .  S
Zr1849     O1852   2.486       .  S
Zr1849     O1855   2.472       .  S
Zr1849     O1857   2.369       .  S
Zr1849     O1858   2.385       .  S
Zr1849     O1859   2.441       .  S
Zr1849     O1860   2.437       .  S
O1850      H1906   0.990       .  S
O1850      H1914   0.990       .  S
O1851      C1871   1.284       .  A
O1852      C1873   1.293       .  A
O1853     Zr1863   2.406       .  S
O1853      C1872   1.280       .  A
O1854     Zr1862   2.395       .  S
O1854      C1873   1.278       .  A
O1855      C1872   1.292       .  A
O1856     Zr1864   2.430       .  S
O1856      C1871   1.284       .  A
O1857     Zr1862   2.377       .  S
O1857     Zr1864   2.352       .  S
O1858     Zr1863   2.390       .  S
O1858     Zr1864   2.357       .  S
O1858      H1893   0.964       .  S
O1859     Zr1862   2.392       .  S
O1859     Zr1879   2.438       .  S
O1859      H1896   0.966       .  S
O1860     Zr1863   2.390       .  S
O1860     Zr1879   2.442       .  S
Zr1861     O1886   2.432       .  S
Zr1861     O1880   2.359       .  S
Zr1861     O1888   2.417       .  S
Zr1861     O1876   2.406       .  S
Zr1861     O1867   2.377       .  S
Zr1861     O1868   2.384       .  S
Zr1861     O1869   2.372       .  S
Zr1861     O1870   2.369       .  S
Zr1862     O1881   2.436       .  S
Zr1862     O1874   2.436       .  S
Zr1862     O1875   2.406       .  S
Zr1862     O1868   2.398       .  S
Zr1862     O1869   2.370       .  S
Zr1863     O1865   2.433       .  S
Zr1863     O1887   2.440       .  S
Zr1863     O1889   2.423       .  S
Zr1863     O1867   2.394       .  S
Zr1863     O1870   2.372       .  S
Zr1864     O1890   2.433       .  S
Zr1864     O1891   2.430       .  S
Zr1864     O1866   2.437       .  S
Zr1864     O1867   2.394       .  S
Zr1864     O1868   2.388       .  S
O1865      H1902   0.990       .  S
O1866      H1897   0.990       .  S
O1866      H1911   0.989       .  S
O1868      H1894   0.965       .  S
O1869     Zr1879   2.353       .  S
O1870     Zr1879   2.363       .  S
O1870      H1895   0.966       .  S
C1871      C3273   1.472       .  S
C1872      C3285   1.483       .  S
C1873      C3282   1.481       .  S
O1874      H1910   0.990       .  S
O1875      C1877   1.278       .  A
O1876      C1877   1.284       .  A
C1877      C3298   1.462       .  S
O1878     Zr1879   2.439       .  S
O1878      H1907   0.990       .  S
Zr1879     O1882   2.436       .  S
Zr1879     O1883   2.441       .  S
Zr1879     O1884   2.525       .  S
O1880      C1885   1.273       .  A
O1881      H1898   0.990       .  S
O1881      H1913   0.990       .  S
O1882      H1899   0.990       .  S
O1883      H1903   0.990       .  S
O1883      H1912   0.989       .  S
O1884      C1885   1.301       .  A
C1885      C3277   1.498       .  S
O1886      H1905   0.990       .  S
O1886      H1909   0.990       .  S
O1887      H1901   0.990       .  S
O1887      H1908   0.990       .  S
O1888      C1892   1.285       .  A
O1889      C1892   1.282       .  A
O1890      H1900   0.990       .  S
O1891      H1904   0.989       .  S
C1892      C3269   1.471       .  S
Zr1915     O1916   2.428       .  S
Zr1915     O1917   2.367       .  S
Zr1915     O1918   2.416       .  S
Zr1915     O1921   2.426       .  S
Zr1915     O1923   2.373       .  S
Zr1915     O1924   2.372       .  S
Zr1915     O1925   2.399       .  S
Zr1915     O1926   2.391       .  S
O1916      H1972   0.990       .  S
O1916      H1980   0.988       .  S
O1917      C1937   1.272       .  A
O1918      C1939   1.280       .  A
O1919     Zr1929   2.420       .  S
O1919      C1938   1.281       .  A
O1920     Zr1928   2.423       .  S
O1920      C1939   1.284       .  A
O1921      C1938   1.282       .  A
O1922     Zr1930   2.507       .  S
O1922      C1937   1.296       .  A
O1923     Zr1928   2.380       .  S
O1923     Zr1930   2.357       .  S
O1924     Zr1929   2.380       .  S
O1924     Zr1930   2.361       .  S
O1924      H1959   0.966       .  S
O1925     Zr1928   2.403       .  S
O1925     Zr1945   2.393       .  S
O1925      H1962   0.967       .  S
O1926     Zr1929   2.406       .  S
O1926     Zr1945   2.407       .  S
Zr1927     O1952   2.433       .  S
Zr1927     O1946   2.400       .  S
Zr1927     O1954   2.508       .  S
Zr1927     O1942   2.500       .  S
Zr1927     O1933   2.424       .  S
Zr1927     O1934   2.434       .  S
Zr1927     O1935   2.374       .  S
Zr1927     O1936   2.376       .  S
Zr1928     O1947   2.444       .  S
Zr1928     O1940   2.435       .  S
Zr1928     O1941   2.415       .  S
Zr1928     O1934   2.403       .  S
Zr1928     O1935   2.373       .  S
Zr1929     O1931   2.437       .  S
Zr1929     O1953   2.436       .  S
Zr1929     O1955   2.404       .  S
Zr1929     O1933   2.397       .  S
Zr1929     O1936   2.383       .  S
Zr1930     O1956   2.435       .  S
Zr1930     O1957   2.434       .  S
Zr1930     O1932   2.437       .  S
Zr1930     O1933   2.434       .  S
Zr1930     O1934   2.432       .  S
O1931      H1968   0.990       .  S
O1932      H1963   0.990       .  S
O1932      H1977   0.990       .  S
O1934      H1960   0.966       .  S
O1935     Zr1945   2.349       .  S
O1936     Zr1945   2.340       .  S
O1936      H1961   0.963       .  S
C1937      C3257   1.492       .  S
C1938      C3294   1.461       .  S
C1939      C3270   1.469       .  S
O1940      H1976   0.990       .  S
O1941      C1943   1.282       .  A
O1942      C1943   1.298       .  A
C1943      C3261   1.496       .  S
O1944     Zr1945   2.422       .  S
O1944      H1973   0.989       .  S
Zr1945     O1948   2.432       .  S
Zr1945     O1949   2.440       .  S
Zr1945     O1950   2.446       .  S
O1946      C1951   1.277       .  A
O1947      H1964   0.990       .  S
O1947      H1979   0.990       .  S
O1948      H1965   0.990       .  S
O1949      H1969   0.990       .  S
O1949      H1978   0.990       .  S
O1950      C1951   1.287       .  A
C1951      C3253   1.459       .  S
O1952      H1971   0.990       .  S
O1952      H1975   0.990       .  S
O1953      H1967   0.990       .  S
O1953      H1974   0.990       .  S
O1954      C1958   1.299       .  A
O1955      C1958   1.281       .  A
O1956      H1966   0.990       .  S
O1957      H1970   0.990       .  S
C1958      C3265   1.497       .  S
Zr1981     O1982   2.436       .  S
Zr1981     O1983   2.450       .  S
Zr1981     O1984   2.460       .  S
Zr1981     O1987   2.444       .  S
Zr1981     O1989   2.373       .  S
Zr1981     O1990   2.381       .  S
Zr1981     O1991   2.425       .  S
Zr1981     O1992   2.422       .  S
O1982      H2038   0.990       .  S
O1982      H2046   0.990       .  S
O1983      C2003   1.286       .  A
O1984      C2005   1.289       .  A
O1985     Zr1995   2.427       .  S
O1985      C2004   1.286       .  A
O1986     Zr1994   2.395       .  S
O1986      C2005   1.278       .  A
O1987      C2004   1.286       .  A
O1988     Zr1996   2.408       .  S
O1988      C2003   1.280       .  A
O1989     Zr1994   2.392       .  S
O1989     Zr1996   2.363       .  S
O1990     Zr1995   2.379       .  S
O1990     Zr1996   2.366       .  S
O1990      H2025   0.966       .  S
O1991     Zr1994   2.392       .  S
O1991     Zr2011   2.410       .  S
O1991      H2028   0.967       .  S
O1992     Zr1995   2.395       .  S
O1992     Zr2011   2.420       .  S
Zr1993     O2018   2.433       .  S
Zr1993     O2012   2.384       .  S
Zr1993     O2020   2.423       .  S
Zr1993     O2008   2.432       .  S
Zr1993     O1999   2.392       .  S
Zr1993     O2000   2.391       .  S
Zr1993     O2001   2.382       .  S
Zr1993     O2002   2.383       .  S
Zr1994     O2013   2.434       .  S
Zr1994     O2006   2.435       .  S
Zr1994     O2007   2.420       .  S
Zr1994     O2000   2.397       .  S
Zr1994     O2001   2.370       .  S
Zr1995     O1997   2.437       .  S
Zr1995     O2019   2.434       .  S
Zr1995     O2021   2.430       .  S
Zr1995     O1999   2.392       .  S
Zr1995     O2002   2.382       .  S
Zr1996     O2022   2.428       .  S
Zr1996     O2023   2.435       .  S
Zr1996     O1998   2.440       .  S
Zr1996     O1999   2.396       .  S
Zr1996     O2000   2.368       .  S
O1997      H2034   0.990       .  S
O1998      H2029   0.990       .  S
O1998      H2043   0.990       .  S
O2000      H2026   0.963       .  S
O2001     Zr2011   2.373       .  S
O2002     Zr2011   2.373       .  S
O2002      H2027   0.964       .  S
C2003      C3274   1.471       .  S
C2004      C3241   1.483       .  S
C2005      C3245   1.477       .  S
O2006      H2042   0.990       .  S
O2007      C2009   1.283       .  A
O2008      C2009   1.283       .  A
C2009      C3254   1.466       .  S
O2010     Zr2011   2.439       .  S
O2010      H2039   0.991       .  S
Zr2011     O2014   2.439       .  S
Zr2011     O2015   2.440       .  S
Zr2011     O2016   2.464       .  S
O2012      C2017   1.275       .  A
O2013      H2030   0.990   1_655  S
O2013      H2045   0.990   1_655  S
O2014      H2031   0.990   1_655  S
O2015      H2035   0.990       .  S
O2015      H2044   0.990       .  S
O2016      C2017   1.288       .  A
C2017      C3249   1.463       .  S
O2018      H2037   0.989       .  S
O2018      H2041   0.989       .  S
O2019      H2033   0.990       .  S
O2019      H2040   0.990       .  S
O2020      C2024   1.281       .  A
O2021      C2024   1.283       .  A
O2022      H2032   0.990       .  S
O2023      H2036   0.989       .  S
C2024      C3289   1.461       .  S
Zr2047     O2048   2.446       .  S
Zr2047     O2049   2.467       .  S
Zr2047     O2050   2.417       .  S
Zr2047     O2053   2.415       .  S
Zr2047     O2055   2.374       .  S
Zr2047     O2056   2.377       .  S
Zr2047     O2057   2.414       .  S
Zr2047     O2058   2.405       .  S
O2048      H2104   0.990       .  S
O2048      H2112   0.991       .  S
O2049      C2069   1.289       .  A
O2050      C2071   1.279       .  A
O2051     Zr2061   2.466       .  S
O2051      C2070   1.290       .  A
O2052     Zr2060   2.481       .  S
O2052      C2071   1.293       .  A
O2053      C2070   1.280       .  A
O2054     Zr2062   2.401       .  S
O2054      C2069   1.276       .  A
O2055     Zr2060   2.407       .  S
O2055     Zr2062   2.389       .  S
O2056     Zr2061   2.401       .  S
O2056     Zr2062   2.380       .  S
O2056      H2091   0.965       .  S
O2057     Zr2060   2.405       .  S
O2057     Zr2077   2.382       .  S
O2057      H2094   0.964       .  S
O2058     Zr2061   2.388       .  S
O2058     Zr2077   2.396       .  S
Zr2059     O2084   2.442       .  S
Zr2059     O2078   2.452       .  S
Zr2059     O2086   2.422       .  S
Zr2059     O2074   2.449       .  S
Zr2059     O2065   2.405       .  S
Zr2059     O2066   2.406       .  S
Zr2059     O2067   2.377       .  S
Zr2059     O2068   2.387       .  S
Zr2060     O2079   2.434       .  S
Zr2060     O2072   2.435       .  S
Zr2060     O2073   2.478       .  S
Zr2060     O2066   2.403       .  S
Zr2060     O2067   2.405       .  S
Zr2061     O2063   2.434       .  S
Zr2061     O2085   2.437       .  S
Zr2061     O2087   2.443       .  S
Zr2061     O2065   2.406       .  S
Zr2061     O2068   2.405       .  S
Zr2062     O2088   2.436       .  S
Zr2062     O2089   2.435       .  S
Zr2062     O2064   2.437       .  S
Zr2062     O2065   2.395       .  S
Zr2062     O2066   2.373       .  S
O2063      H2100   0.990       .  S
O2064      H2095   0.990       .  S
O2064      H2109   0.990       .  S
O2066      H2092   0.963       .  S
O2067     Zr2077   2.389       .  S
O2068     Zr2077   2.378       .  S
O2068      H2093   0.965       .  S
C2069      C3317   1.479       .  S
C2070      C3354   1.484       .  S
C2071      C3374   1.478       .  S
O2072      H2108   0.990       .  S
O2073      C2075   1.294       .  A
O2074      C2075   1.287       .  A
C2075      C3306   1.489       .  S
O2076     Zr2077   2.441       .  S
O2076      H2105   0.990       .  S
Zr2077     O2080   2.437       .  S
Zr2077     O2081   2.438       .  S
Zr2077     O2082   2.416       .  S
O2078      C2083   1.286       .  A
O2079      H2096   0.990       .  S
O2079      H2111   0.990       .  S
O2080      H2097   0.990       .  S
O2081      H2101   0.990       .  S
O2081      H2110   0.990       .  S
O2082      C2083   1.278       .  A
C2083      C3281   1.478       .  S
O2084      H2103   0.990       .  S
O2084      H2107   0.991       .  S
O2085      H2099   0.990       .  S
O2085      H2106   0.990       .  S
O2086      C2090   1.280       .  A
O2087      C2090   1.285       .  A
O2088      H2098   0.990       .  S
O2089      H2102   0.990       .  S
C2090      C3242   1.467       .  S
Zr2113     O2114   2.437       .  S
Zr2113     O2115   2.465       .  S
Zr2113     O2116   2.444       .  S
Zr2113     O2119   2.447   1_554  S
Zr2113     O2121   2.372       .  S
Zr2113     O2122   2.378       .  S
Zr2113     O2123   2.410   1_554  S
Zr2113     O2124   2.397   1_554  S
O2114      H2170   0.990       .  S
O2114      H2178   0.990       .  S
O2115      C2135   1.290       .  A
O2116      C2137   1.286   1_554  A
O2117     Zr2127   2.464       .  S
O2117      C2136   1.288       .  A
O2118     Zr2126   2.458       .  S
O2118      C2137   1.285       .  A
O2119      C2136   1.288       .  A
O2120     Zr2128   2.389       .  S
O2120      C2135   1.273       .  A
O2121     Zr2126   2.399   1_554  S
O2121     Zr2128   2.385       .  S
O2122     Zr2127   2.402   1_554  S
O2122     Zr2128   2.390       .  S
O2122      H2157   0.965       .  S
O2123     Zr2126   2.398       .  S
O2123     Zr2143   2.413       .  S
O2123      H2160   0.964       .  S
O2124     Zr2127   2.385       .  S
O2124     Zr2143   2.392       .  S
Zr2125     O2150   2.438       .  S
Zr2125     O2144   2.458       .  S
Zr2125     O2152   2.453       .  S
Zr2125     O2140   2.461       .  S
Zr2125     O2131   2.389       .  S
Zr2125     O2132   2.411       .  S
Zr2125     O2133   2.378       .  S
Zr2125     O2134   2.387       .  S
Zr2126     O2145   2.433       .  S
Zr2126     O2138   2.435   1_556  S
Zr2126     O2139   2.428       .  S
Zr2126     O2132   2.414       .  S
Zr2126     O2133   2.408       .  S
Zr2127     O2129   2.436       .  S
Zr2127     O2151   2.436   1_556  S
Zr2127     O2153   2.446       .  S
Zr2127     O2131   2.387       .  S
Zr2127     O2134   2.400       .  S
Zr2128     O2154   2.439       .  S
Zr2128     O2155   2.436       .  S
Zr2128     O2130   2.436       .  S
Zr2128     O2131   2.366   1_554  S
Zr2128     O2132   2.388   1_554  S
O2129      H2166   0.990       .  S
O2130      H2161   0.991       .  S
O2130      H2175   0.990       .  S
O2132      H2158   0.965       .  S
O2133     Zr2143   2.386       .  S
O2134     Zr2143   2.384       .  S
O2134      H2159   0.966       .  S
C2135      C3314   1.472       .  S
C2136      C3330   1.485       .  S
C2137      C3350   1.484   1_556  S
O2138      H2174   0.990       .  S
O2139      C2141   1.282       .  A
O2140      C2141   1.289       .  A
C2141      C3678   1.472       .  S
O2142     Zr2143   2.439       .  S
O2142      H2171   0.990       .  S
Zr2143     O2146   2.437       .  S
Zr2143     O2147   2.438       .  S
Zr2143     O2148   2.444       .  S
O2144      C2149   1.288       .  A
O2145      H2162   0.990       .  S
O2145      H2177   0.990       .  S
O2146      H2163   0.990       .  S
O2147      H2167   0.990       .  S
O2147      H2176   0.990       .  S
O2148      C2149   1.283       .  A
C2149      C3741   1.487       .  S
O2150      H2169   0.990       .  S
O2150      H2173   0.990       .  S
O2151      H2165   0.990       .  S
O2151      H2172   0.990       .  S
O2152      C2156   1.289       .  A
O2153      C2156   1.287       .  A
O2154      H2164   0.990       .  S
O2155      H2168   0.990       .  S
C2156      C3714   1.477       .  S
Zr2179     O2180   2.432       .  S
Zr2179     O2181   2.410       .  S
Zr2179     O2182   2.475       .  S
Zr2179     O2185   2.474       .  S
Zr2179     O2187   2.380       .  S
Zr2179     O2188   2.384       .  S
Zr2179     O2189   2.422       .  S
Zr2179     O2190   2.417       .  S
O2180      H2236   0.990       .  S
O2180      H2244   0.990       .  S
O2181      C2201   1.278       .  A
O2182      C2203   1.292       .  A
O2183     Zr2193   2.416       .  S
O2183      C2202   1.284       .  A
O2184     Zr2192   2.407       .  S
O2184      C2203   1.278       .  A
O2185      C2202   1.293       .  A
O2186     Zr2194   2.439       .  S
O2186      C2201   1.286       .  A
O2187     Zr2192   2.392       .  S
O2187     Zr2194   2.365       .  S
O2188     Zr2193   2.379       .  S
O2188     Zr2194   2.347       .  S
O2188      H2223   0.963       .  S
O2189     Zr2192   2.400       .  S
O2189     Zr2209   2.413       .  S
O2189      H2226   0.967       .  S
O2190     Zr2193   2.400       .  S
O2190     Zr2209   2.425       .  S
Zr2191     O2216   2.435       .  S
Zr2191     O2210   2.384       .  S
Zr2191     O2218   2.430       .  S
Zr2191     O2206   2.425       .  S
Zr2191     O2197   2.394       .  S
Zr2191     O2198   2.393       .  S
Zr2191     O2199   2.379       .  S
Zr2191     O2200   2.375       .  S
Zr2192     O2211   2.435       .  S
Zr2192     O2204   2.437       .  S
Zr2192     O2205   2.423       .  S
Zr2192     O2198   2.398       .  S
Zr2192     O2199   2.379       .  S
Zr2193     O2195   2.434       .  S
Zr2193     O2217   2.434       .  S
Zr2193     O2219   2.437       .  S
Zr2193     O2197   2.392       .  S
Zr2193     O2200   2.372       .  S
Zr2194     O2220   2.436       .  S
Zr2194     O2221   2.428       .  S
Zr2194     O2196   2.438       .  S
Zr2194     O2197   2.405       .  S
Zr2194     O2198   2.384       .  S
O2195      H2232   0.990       .  S
O2196      H2227   0.990       .  S
O2196      H2241   0.990       .  S
O2198      H2224   0.966       .  S
O2199     Zr2209   2.377       .  S
O2200     Zr2209   2.353       .  S
O2200      H2225   0.958       .  S
C2201      C3218   1.464       .  S
C2202      C3234   1.485       .  S
C2203      C3237   1.485       .  S
O2204      H2240   0.990       .  S
O2205      C2207   1.282       .  A
O2206      C2207   1.286       .  A
C2207      C3225   1.475       .  S
O2208     Zr2209   2.440       .  S
O2208      H2237   0.990       .  S
Zr2209     O2212   2.437       .  S
Zr2209     O2213   2.441       .  S
Zr2209     O2214   2.484       .  S
O2210      C2215   1.278       .  A
O2211      H2228   0.990       .  S
O2211      H2243   0.990       .  S
O2212      H2229   0.990       .  S
O2213      H2233   0.990       .  S
O2213      H2242   0.990       .  S
O2214      C2215   1.292       .  A
C2215      C3230   1.484       .  S
O2216      H2235   0.990       .  S
O2216      H2239   0.990       .  S
O2217      H2231   0.990       .  S
O2217      H2238   0.990       .  S
O2218      C2222   1.284       .  A
O2219      C2222   1.286       .  A
O2220      H2230   0.989       .  S
O2221      H2234   0.990       .  S
C2222      C3221   1.468       .  S
Zr2245     O2246   2.434       .  S
Zr2245     O2247   2.426       .  S
Zr2245     O2248   2.475       .  S
Zr2245     O2251   2.451       .  S
Zr2245     O2253   2.371       .  S
Zr2245     O2254   2.383       .  S
Zr2245     O2255   2.424       .  S
Zr2245     O2256   2.425       .  S
O2246      H2302   0.990       .  S
O2246      H2310   0.990       .  S
O2247      C2267   1.281       .  A
O2248      C2269   1.290       .  A
O2249     Zr2259   2.427   1_655  S
O2249      C2268   1.284   1_655  A
O2250     Zr2258   2.415       .  S
O2250      C2269   1.278       .  A
O2251      C2268   1.289       .  A
O2252     Zr2260   2.416       .  S
O2252      C2267   1.282       .  A
O2253     Zr2258   2.392       .  S
O2253     Zr2260   2.352       .  S
O2254     Zr2259   2.374       .  S
O2254     Zr2260   2.350       .  S
O2254      H2289   0.966       .  S
O2255     Zr2258   2.404       .  S
O2255     Zr2275   2.423   1_455  S
O2255      H2292   0.968       .  S
O2256     Zr2259   2.392       .  S
O2256     Zr2275   2.414   1_455  S
Zr2257     O2282   2.447       .  S
Zr2257     O2276   2.411   1_545  S
Zr2257     O2284   2.413       .  S
Zr2257     O2272   2.423   1_545  S
Zr2257     O2263   2.404       .  S
Zr2257     O2264   2.399       .  S
Zr2257     O2265   2.381       .  S
Zr2257     O2266   2.395       .  S
Zr2258     O2277   2.433   1_545  S
Zr2258     O2270   2.432   1_545  S
Zr2258     O2271   2.446   1_545  S
Zr2258     O2264   2.407       .  S
Zr2258     O2265   2.382       .  S
Zr2259     O2261   2.435   1_455  S
Zr2259     O2283   2.438       .  S
Zr2259     O2285   2.428       .  S
Zr2259     O2263   2.395       .  S
Zr2259     O2266   2.364       .  S
Zr2260     O2286   2.437       .  S
Zr2260     O2287   2.415       .  S
Zr2260     O2262   2.438       .  S
Zr2260     O2263   2.388       .  S
Zr2260     O2264   2.380       .  S
O2261      H2298   0.990       .  S
O2262      H2293   0.990       .  S
O2262      H2307   0.990       .  S
O2264      H2290   0.964       .  S
O2265     Zr2275   2.393   1_455  S
O2266     Zr2275   2.394   1_455  S
O2266      H2291   0.965   1_455  S
C2267      C3217   1.462       .  S
C2268      C3213   1.479   1_455  S
C2269      C3206   1.487       .  S
O2270      H2306   0.990   1_565  S
O2271      C2273   1.286       .  A
O2272      C2273   1.280       .  A
C2273      C3202   1.470       .  S
O2274     Zr2275   2.438       .  S
O2274      H2303   0.990   1_545  S
Zr2275     O2278   2.436   1_645  S
Zr2275     O2279   2.438       .  S
Zr2275     O2280   2.445       .  S
O2276      C2281   1.271   1_455  A
O2277      H2294   0.990       .  S
O2277      H2309   0.990       .  S
O2278      H2295   0.990   1_455  S
O2279      H2299   0.991       .  S
O2279      H2308   0.990       .  S
O2280      C2281   1.277   1_545  A
C2281      C3210   1.469       .  S
O2282      H2301   0.990       .  S
O2282      H2305   0.991       .  S
O2283      H2297   0.990   1_455  S
O2283      H2304   0.990       .  S
O2284      C2288   1.278       .  A
O2285      C2288   1.286       .  A
O2286      H2296   0.990       .  S
O2287      H2300   0.990       .  S
C2288      C3197   1.471       .  S
Zr2311     O2312   2.434       .  S
Zr2311     O2313   2.427       .  S
Zr2311     O2314   2.515       .  S
Zr2311     O2317   2.520       .  S
Zr2311     O2319   2.375       .  S
Zr2311     O2320   2.384       .  S
Zr2311     O2321   2.445       .  S
Zr2311     O2322   2.442       .  S
O2312      H2368   0.990       .  S
O2312      H2376   0.990       .  S
O2313      C2333   1.283       .  A
O2314      C2335   1.301       .  A
O2315     Zr2325   2.421       .  S
O2315      C2334   1.280   1_556  A
O2316     Zr2324   2.392       .  S
O2316      C2335   1.278       .  A
O2317      C2334   1.302       .  A
O2318     Zr2326   2.426       .  S
O2318      C2333   1.283       .  A
O2319     Zr2324   2.381       .  S
O2319     Zr2326   2.349       .  S
O2320     Zr2325   2.389   1_554  S
O2320     Zr2326   2.352       .  S
O2320      H2355   0.961       .  S
O2321     Zr2324   2.393       .  S
O2321     Zr2341   2.434   1_455  S
O2321      H2358   0.968   1_455  S
O2322     Zr2325   2.380   1_554  S
O2322     Zr2341   2.453   1_455  S
Zr2323     O2348   2.437       .  S
Zr2323     O2342   2.391   1_455  S
Zr2323     O2350   2.419       .  S
Zr2323     O2338   2.446       .  S
Zr2323     O2329   2.374       .  S
Zr2323     O2330   2.403       .  S
Zr2323     O2331   2.376   1_455  S
Zr2323     O2332   2.393       .  S
Zr2324     O2343   2.438   1_455  S
Zr2324     O2336   2.435       .  S
Zr2324     O2337   2.401   1_455  S
Zr2324     O2330   2.396       .  S
Zr2324     O2331   2.369   1_455  S
Zr2325     O2327   2.436       .  S
Zr2325     O2349   2.446       .  S
Zr2325     O2351   2.409       .  S
Zr2325     O2329   2.394   1_556  S
Zr2325     O2332   2.377   1_556  S
Zr2326     O2352   2.433       .  S
Zr2326     O2353   2.435       .  S
Zr2326     O2328   2.432       .  S
Zr2326     O2329   2.375       .  S
Zr2326     O2330   2.380       .  S
O2327      H2364   0.990       .  S
O2328      H2359   0.990       .  S
O2328      H2373   0.989       .  S
O2330      H2356   0.964       .  S
O2331     Zr2341   2.358       .  S
O2332     Zr2341   2.387   1_455  S
O2332      H2357   0.964   1_554  S
C2333      C3226   1.462       .  S
C2334      C3186   1.504       .  S
C2335      C3193   1.499       .  S
O2336      H2372   0.990       .  S
O2337      C2339   1.277       .  A
O2338      C2339   1.287   1_455  A
C2339      C3198   1.466       .  S
O2340     Zr2341   2.436   1_556  S
O2340      H2369   0.990   1_556  S
Zr2341     O2344   2.434       .  S
Zr2341     O2345   2.443   1_554  S
Zr2341     O2346   2.511       .  S
O2342      C2347   1.270       .  A
O2343      H2360   0.990       .  S
O2343      H2375   0.990       .  S
O2344      H2361   0.990       .  S
O2345      H2365   0.990       .  S
O2345      H2374   0.989       .  S
O2346      C2347   1.294       .  A
C2347      C3189   1.498       .  S
O2348      H2367   0.990       .  S
O2348      H2371   0.988       .  S
O2349      H2363   0.990       .  S
O2349      H2370   0.991       .  S
O2350      C2354   1.282   1_554  A
O2351      C2354   1.277       .  A
O2352      H2362   0.990       .  S
O2353      H2366   0.991       .  S
C2354      C3182   1.444       .  S
Zr2377     O2378   2.434   1_545  S
Zr2377     O2379   2.428   1_545  S
Zr2377     O2380   2.494   1_545  S
Zr2377     O2383   2.513   1_545  S
Zr2377     O2385   2.368       .  S
Zr2377     O2386   2.378       .  S
Zr2377     O2387   2.447       .  S
Zr2377     O2388   2.429       .  S
O2378      H2434   0.990       .  S
O2378      H2442   0.990       .  S
O2379      C2399   1.283       .  A
O2380      C2401   1.297   1_565  A
O2381     Zr2391   2.397       .  S
O2381      C2400   1.279   1_545  A
O2382     Zr2390   2.405       .  S
O2382      C2401   1.281       .  A
O2383      C2400   1.299       .  A
O2384     Zr2392   2.432       .  S
O2384      C2399   1.284   1_545  A
O2385     Zr2390   2.373       .  S
O2385     Zr2392   2.346       .  S
O2386     Zr2391   2.383       .  S
O2386     Zr2392   2.369       .  S
O2386      H2421   0.961       .  S
O2387     Zr2390   2.400       .  S
O2387     Zr2407   2.435       .  S
O2387      H2424   0.966       .  S
O2388     Zr2391   2.385       .  S
O2388     Zr2407   2.440       .  S
Zr2389     O2414   2.432       .  S
Zr2389     O2408   2.362       .  S
Zr2389     O2416   2.436       .  S
Zr2389     O2404   2.423       .  S
Zr2389     O2395   2.385       .  S
Zr2389     O2396   2.389       .  S
Zr2389     O2397   2.371       .  S
Zr2389     O2398   2.379       .  S
Zr2390     O2409   2.436       .  S
Zr2390     O2402   2.432       .  S
Zr2390     O2403   2.427       .  S
Zr2390     O2396   2.399       .  S
Zr2390     O2397   2.364       .  S
Zr2391     O2393   2.437   1_554  S
Zr2391     O2415   2.438       .  S
Zr2391     O2417   2.393       .  S
Zr2391     O2395   2.394       .  S
Zr2391     O2398   2.375       .  S
Zr2392     O2418   2.432       .  S
Zr2392     O2419   2.433       .  S
Zr2392     O2394   2.439       .  S
Zr2392     O2395   2.390       .  S
Zr2392     O2396   2.393       .  S
O2393      H2430   0.990       .  S
O2394      H2425   0.990       .  S
O2394      H2439   0.989       .  S
O2396      H2422   0.963       .  S
O2397     Zr2407   2.347       .  S
O2398     Zr2407   2.351       .  S
O2398      H2423   0.963       .  S
C2399      C3201   1.468       .  S
C2400      C3178   1.510       .  S
C2401      C3173   1.490   1_545  S
O2402      H2438   0.990       .  S
O2403      C2405   1.282       .  A
O2404      C2405   1.283       .  A
C2405      C3222   1.463       .  S
O2406     Zr2407   2.436       .  S
O2406      H2435   0.990   1_554  S
Zr2407     O2410   2.437       .  S
Zr2407     O2411   2.439   1_554  S
Zr2407     O2412   2.526       .  S
O2408      C2413   1.273       .  A
O2409      H2426   0.992       .  S
O2409      H2441   0.990       .  S
O2410      H2427   0.990       .  S
O2411      H2431   0.990       .  S
O2411      H2440   0.989       .  S
O2412      C2413   1.300       .  A
C2413      C3169   1.505       .  S
O2414      H2433   0.988       .  S
O2414      H2437   0.991       .  S
O2415      H2429   0.991       .  S
O2415      H2436   0.990       .  S
O2416      C2420   1.286       .  A
O2417      C2420   1.278       .  A
O2418      H2428   0.990       .  S
O2419      H2432   0.989       .  S
C2420      C3181   1.464       .  S
Zr2443     O2444   2.443       .  S
Zr2443     O2445   2.499       .  S
Zr2443     O2446   2.454       .  S
Zr2443     O2449   2.454       .  S
Zr2443     O2451   2.383       .  S
Zr2443     O2452   2.385       .  S
Zr2443     O2453   2.431       .  S
Zr2443     O2454   2.415       .  S
O2444      H2500   0.990       .  S
O2444      H2508   0.990       .  S
O2445      C2465   1.296       .  A
O2446      C2467   1.287       .  A
O2447     Zr2457   2.468   1_556  S
O2447      C2466   1.291       .  A
O2448     Zr2456   2.466       .  S
O2448      C2467   1.290       .  A
O2449      C2466   1.286       .  A
O2450     Zr2458   2.404       .  S
O2450      C2465   1.275       .  A
O2451     Zr2456   2.411       .  S
O2451     Zr2458   2.395       .  S
O2452     Zr2457   2.393   1_556  S
O2452     Zr2458   2.386       .  S
O2452      H2487   0.968       .  S
O2453     Zr2456   2.409       .  S
O2453     Zr2473   2.394       .  S
O2453      H2490   0.962       .  S
O2454     Zr2457   2.390   1_556  S
O2454     Zr2473   2.409       .  S
Zr2455     O2480   2.443       .  S
Zr2455     O2474   2.456       .  S
Zr2455     O2482   2.438       .  S
Zr2455     O2470   2.463   1_554  S
Zr2455     O2461   2.410       .  S
Zr2455     O2462   2.404   1_554  S
Zr2455     O2463   2.377   1_554  S
Zr2455     O2464   2.387       .  S
Zr2456     O2475   2.436       .  S
Zr2456     O2468   2.436       .  S
Zr2456     O2469   2.482       .  S
Zr2456     O2462   2.398       .  S
Zr2456     O2463   2.405       .  S
Zr2457     O2459   2.435       .  S
Zr2457     O2481   2.435       .  S
Zr2457     O2483   2.445       .  S
Zr2457     O2461   2.407       .  S
Zr2457     O2464   2.405       .  S
Zr2458     O2484   2.437   1_556  S
Zr2458     O2485   2.437   1_556  S
Zr2458     O2460   2.439       .  S
Zr2458     O2461   2.397   1_556  S
Zr2458     O2462   2.374       .  S
O2459      H2496   0.990       .  S
O2460      H2491   0.990       .  S
O2460      H2505   0.990       .  S
O2462      H2488   0.963       .  S
O2463     Zr2473   2.393       .  S
O2464     Zr2473   2.372   1_554  S
O2464      H2489   0.966       .  S
C2465      C3666   1.492       .  S
C2466      C3606   1.496       .  S
C2467      C3626   1.486       .  S
O2468      H2504   0.990       .  S
O2469      C2471   1.294       .  A
O2470      C2471   1.289       .  A
C2471      C3185   1.498       .  S
O2472     Zr2473   2.439       .  S
O2472      H2501   0.990       .  S
Zr2473     O2476   2.439       .  S
Zr2473     O2477   2.440       .  S
Zr2473     O2478   2.436       .  S
O2474      C2479   1.289   1_554  A
O2475      H2492   0.990       .  S
O2475      H2507   0.990       .  S
O2476      H2493   0.990       .  S
O2477      H2497   0.990       .  S
O2477      H2506   0.990       .  S
O2478      C2479   1.280       .  A
C2479      C3170   1.487   1_556  S
O2480      H2499   0.990       .  S
O2480      H2503   0.990       .  S
O2481      H2495   0.990       .  S
O2481      H2502   0.990       .  S
O2482      C2486   1.284       .  A
O2483      C2486   1.285       .  A
O2484      H2494   0.990       .  S
O2485      H2498   0.990       .  S
C2486      C3229   1.473       .  S
Zr2509     O2510   2.439       .  S
Zr2509     O2511   2.443       .  S
Zr2509     O2512   2.455       .  S
Zr2509     O2515   2.462   1_545  S
Zr2509     O2517   2.385       .  S
Zr2509     O2518   2.385       .  S
Zr2509     O2519   2.408   1_545  S
Zr2509     O2520   2.395   1_545  S
O2510      H2566   0.991       .  S
O2510      H2574   0.990   1_545  S
O2511      C2531   1.285       .  A
O2512      C2533   1.287       .  A
O2513     Zr2523   2.442       .  S
O2513      C2532   1.286       .  A
O2514     Zr2522   2.430   1_545  S
O2514      C2533   1.282       .  A
O2515      C2532   1.289       .  A
O2516     Zr2524   2.431       .  S
O2516      C2531   1.281       .  A
O2517     Zr2522   2.400   1_545  S
O2517     Zr2524   2.380       .  S
O2518     Zr2523   2.397   1_545  S
O2518     Zr2524   2.386       .  S
O2518      H2553   0.963       .  S
O2519     Zr2522   2.404       .  S
O2519     Zr2539   2.400       .  S
O2519      H2556   0.961       .  S
O2520     Zr2523   2.388       .  S
O2520     Zr2539   2.392       .  S
Zr2521     O2546   2.443       .  S
Zr2521     O2540   2.487       .  S
Zr2521     O2548   2.457       .  S
Zr2521     O2536   2.460       .  S
Zr2521     O2527   2.406   1_565  S
Zr2521     O2528   2.423   1_565  S
Zr2521     O2529   2.380       .  S
Zr2521     O2530   2.387       .  S
Zr2522     O2541   2.435       .  S
Zr2522     O2534   2.434   1_565  S
Zr2522     O2535   2.429       .  S
Zr2522     O2528   2.400   1_565  S
Zr2522     O2529   2.399       .  S
Zr2523     O2525   2.436       .  S
Zr2523     O2547   2.440   1_565  S
Zr2523     O2549   2.435       .  S
Zr2523     O2527   2.390   1_565  S
Zr2523     O2530   2.398       .  S
Zr2524     O2550   2.436       .  S
Zr2524     O2551   2.438       .  S
Zr2524     O2526   2.437       .  S
Zr2524     O2527   2.397       .  S
Zr2524     O2528   2.395       .  S
O2525      H2562   0.990       .  S
O2526      H2557   0.990       .  S
O2526      H2571   0.990       .  S
O2528      H2554   0.963       .  S
O2529     Zr2539   2.386       .  S
O2530     Zr2539   2.390       .  S
O2530      H2555   0.964       .  S
C2531      C3233   1.479       .  S
C2532      C3174   1.486       .  S
C2533      C3205   1.474       .  S
O2534      H2570   0.990       .  S
O2535      C2537   1.282       .  A
O2536      C2537   1.289       .  A
C2537      C3477   1.474       .  S
O2538     Zr2539   2.438       .  S
O2538      H2567   0.991       .  S
Zr2539     O2542   2.439       .  S
Zr2539     O2543   2.438       .  S
Zr2539     O2544   2.422       .  S
O2540      C2545   1.295       .  A
O2541      H2558   0.990       .  S
O2541      H2573   0.990       .  S
O2542      H2559   0.990       .  S
O2543      H2563   0.990       .  S
O2543      H2572   0.990       .  S
O2544      C2545   1.278       .  A
C2545      C3526   1.494       .  S
O2546      H2565   0.990       .  S
O2546      H2569   0.990       .  S
O2547      H2561   0.990       .  S
O2547      H2568   0.990       .  S
O2548      C2552   1.288       .  A
O2549      C2552   1.285       .  A
O2550      H2560   0.990       .  S
O2551      H2564   0.990       .  S
C2552      C3462   1.481       .  S
Zr2575     O2576   2.438   1_655  S
Zr2575     O2577   2.449       .  S
Zr2575     O2578   2.446       .  S
Zr2575     O2581   2.439   1_645  S
Zr2575     O2583   2.377       .  S
Zr2575     O2584   2.380   1_545  S
Zr2575     O2585   2.417   1_554  S
Zr2575     O2586   2.404   1_644  S
O2576      H2632   0.990       .  S
O2576      H2640   0.989       .  S
O2577      C2597   1.286   1_545  A
O2578      C2599   1.286       .  A
O2579     Zr2589   2.479       .  S
O2579      C2598   1.289       .  A
O2580     Zr2588   2.475       .  S
O2580      C2599   1.289       .  A
O2581      C2598   1.285       .  A
O2582     Zr2590   2.391       .  S
O2582      C2597   1.274       .  A
O2583     Zr2588   2.409       .  S
O2583     Zr2590   2.397   1_545  S
O2584     Zr2589   2.397   1_655  S
O2584     Zr2590   2.390       .  S
O2584      H2619   0.969   1_655  S
O2585     Zr2588   2.404   1_556  S
O2585     Zr2605   2.409   1_545  S
O2585      H2622   0.963       .  S
O2586     Zr2589   2.389   1_556  S
O2586     Zr2605   2.404   1_455  S
Zr2587     O2612   2.444       .  S
Zr2587     O2606   2.416       .  S
Zr2587     O2614   2.432       .  S
Zr2587     O2602   2.436       .  S
Zr2587     O2593   2.398   1_556  S
Zr2587     O2594   2.398   1_556  S
Zr2587     O2595   2.380       .  S
Zr2587     O2596   2.385       .  S
Zr2588     O2607   2.436   1_554  S
Zr2588     O2600   2.436       .  S
Zr2588     O2601   2.455   1_554  S
Zr2588     O2594   2.410   1_545  S
Zr2588     O2595   2.398   1_544  S
Zr2589     O2591   2.436   1_554  S
Zr2589     O2613   2.437       .  S
Zr2589     O2615   2.451   1_454  S
Zr2589     O2593   2.409   1_455  S
Zr2589     O2596   2.402   1_454  S
Zr2590     O2616   2.435       .  S
Zr2590     O2617   2.436       .  S
Zr2590     O2592   2.438       .  S
Zr2590     O2593   2.390       .  S
Zr2590     O2594   2.381       .  S
O2591      H2628   0.990       .  S
O2592      H2623   0.991       .  S
O2592      H2637   0.990       .  S
O2594      H2620   0.965       .  S
O2595     Zr2605   2.374       .  S
O2596     Zr2605   2.367       .  S
O2596      H2621   0.967       .  S
C2597      C3209   1.465   1_565  S
C2598      C3177   1.491       .  S
C2599      C3190   1.493       .  S
O2600      H2636   0.990       .  S
O2601      C2603   1.289   1_545  A
O2602      C2603   1.286       .  A
C2603      C3718   1.479       .  S
O2604     Zr2605   2.439   1_445  S
O2604      H2633   0.990       .  S
Zr2605     O2608   2.436   1_565  S
Zr2605     O2609   2.440   1_655  S
Zr2605     O2610   2.460       .  S
O2606      C2611   1.281       .  A
O2607      H2624   0.990       .  S
O2607      H2639   0.990       .  S
O2608      H2625   0.990       .  S
O2609      H2629   0.990       .  S
O2609      H2638   0.990       .  S
O2610      C2611   1.288       .  A
C2611      C3697   1.481       .  S
O2612      H2631   0.990       .  S
O2612      H2635   0.990       .  S
O2613      H2627   0.990   1_455  S
O2613      H2634   0.990       .  S
O2614      C2618   1.285       .  A
O2615      C2618   1.287       .  A
O2616      H2626   0.990       .  S
O2617      H2630   0.990       .  S
C2618      C3682   1.473       .  S
Zr2641     O2642   2.444       .  S
Zr2641     O2643   2.480       .  S
Zr2641     O2644   2.447   1_455  S
Zr2641     O2647   2.428       .  S
Zr2641     O2649   2.375   1_455  S
Zr2641     O2650   2.383       .  S
Zr2641     O2651   2.416   1_455  S
Zr2641     O2652   2.409       .  S
O2642      H2698   0.991       .  S
O2642      H2706   0.991       .  S
O2643      C2663   1.292       .  A
O2644      C2665   1.284       .  A
O2645     Zr2655   2.458       .  S
O2645      C2664   1.289       .  A
O2646     Zr2654   2.431       .  S
O2646      C2665   1.282       .  A
O2647      C2664   1.283       .  A
O2648     Zr2656   2.428       .  S
O2648      C2663   1.280   1_655  A
O2649     Zr2654   2.404       .  S
O2649     Zr2656   2.386       .  S
O2650     Zr2655   2.396       .  S
O2650     Zr2656   2.381   1_455  S
O2650      H2685   0.965       .  S
O2651     Zr2654   2.401       .  S
O2651     Zr2671   2.409       .  S
O2651      H2688   0.964       .  S
O2652     Zr2655   2.387       .  S
O2652     Zr2671   2.394   1_455  S
Zr2653     O2678   2.445       .  S
Zr2653     O2672   2.477       .  S
Zr2653     O2680   2.438       .  S
Zr2653     O2668   2.455       .  S
Zr2653     O2659   2.409       .  S
Zr2653     O2660   2.415       .  S
Zr2653     O2661   2.373       .  S
Zr2653     O2662   2.390       .  S
Zr2654     O2673   2.436       .  S
Zr2654     O2666   2.434       .  S
Zr2654     O2667   2.431       .  S
Zr2654     O2660   2.399       .  S
Zr2654     O2661   2.397       .  S
Zr2655     O2657   2.436       .  S
Zr2655     O2679   2.438       .  S
Zr2655     O2681   2.436   1_455  S
Zr2655     O2659   2.396   1_455  S
Zr2655     O2662   2.402   1_455  S
Zr2656     O2682   2.434       .  S
Zr2656     O2683   2.436       .  S
Zr2656     O2658   2.437       .  S
Zr2656     O2659   2.391       .  S
Zr2656     O2660   2.404       .  S
O2657      H2694   0.990       .  S
O2658      H2689   0.990       .  S
O2658      H2703   0.990       .  S
O2660      H2686   0.964       .  S
O2661     Zr2671   2.386       .  S
O2662     Zr2671   2.381       .  S
O2662      H2687   0.966       .  S
C2663      C3194   1.494       .  S
C2664      C3238   1.483       .  S
C2665      C3214   1.474       .  S
O2666      H2702   0.990       .  S
O2667      C2669   1.283       .  A
O2668      C2669   1.287       .  A
C2669      C3286   1.476       .  S
O2670     Zr2671   2.438   1_455  S
O2670      H2699   0.991       .  S
Zr2671     O2674   2.436       .  S
Zr2671     O2675   2.441   1_655  S
Zr2671     O2676   2.433       .  S
O2672      C2677   1.291       .  A
O2673      H2690   0.990       .  S
O2673      H2705   0.990       .  S
O2674      H2691   0.990       .  S
O2675      H2695   0.989       .  S
O2675      H2704   0.990       .  S
O2676      C2677   1.282       .  A
C2677      C3262   1.494       .  S
O2678      H2697   0.991       .  S
O2678      H2701   0.991       .  S
O2679      H2693   0.990       .  S
O2679      H2700   0.990       .  S
O2680      C2684   1.284       .  A
O2681      C2684   1.284       .  A
O2682      H2692   0.990       .  S
O2683      H2696   0.990       .  S
C2684      C3246   1.471       .  S
Zr2707     O2708   2.444       .  S
Zr2707     O2709   2.446       .  S
Zr2707     O2710   2.445       .  S
Zr2707     O2713   2.444       .  S
Zr2707     O2715   2.377       .  S
Zr2707     O2716   2.380       .  S
Zr2707     O2717   2.412       .  S
Zr2707     O2718   2.394       .  S
O2708      H2764   0.990       .  S
O2708      H2772   0.991       .  S
O2709      C2729   1.285       .  A
O2710      C2731   1.286       .  A
O2711     Zr2721   2.438       .  S
O2711      C2730   1.283       .  A
O2712     Zr2720   2.487       .  S
O2712      C2731   1.291       .  A
O2713      C2730   1.287       .  A
O2714     Zr2722   2.417       .  S
O2714      C2729   1.279       .  A
O2715     Zr2720   2.404       .  S
O2715     Zr2722   2.387       .  S
O2716     Zr2721   2.387       .  S
O2716     Zr2722   2.381       .  S
O2716      H2751   0.966       .  S
O2717     Zr2720   2.406       .  S
O2717     Zr2737   2.398       .  S
O2717      H2754   0.966       .  S
O2718     Zr2721   2.391       .  S
O2718     Zr2737   2.386       .  S
Zr2719     O2744   2.443       .  S
Zr2719     O2738   2.466       .  S
Zr2719     O2746   2.462       .  S
Zr2719     O2734   2.456       .  S
Zr2719     O2725   2.403       .  S
Zr2719     O2726   2.418       .  S
Zr2719     O2727   2.387       .  S
Zr2719     O2728   2.384       .  S
Zr2720     O2739   2.436       .  S
Zr2720     O2732   2.434       .  S
Zr2720     O2733   2.466       .  S
Zr2720     O2726   2.408       .  S
Zr2720     O2727   2.407       .  S
Zr2721     O2723   2.434       .  S
Zr2721     O2745   2.438       .  S
Zr2721     O2747   2.417       .  S
Zr2721     O2725   2.403       .  S
Zr2721     O2728   2.398       .  S
Zr2722     O2748   2.434       .  S
Zr2722     O2749   2.435       .  S
Zr2722     O2724   2.439       .  S
Zr2722     O2725   2.395       .  S
Zr2722     O2726   2.391       .  S
O2723      H2760   0.990       .  S
O2724      H2755   0.990       .  S
O2724      H2769   0.990       .  S
O2726      H2752   0.965       .  S
O2727     Zr2737   2.387       .  S
O2728     Zr2737   2.383       .  S
O2728      H2753   0.967       .  S
C2729      C3517   1.471       .  S
C2730      C3494   1.472       .  S
C2731      C3458   1.500       .  S
O2732      H2768   0.990       .  S
O2733      C2735   1.292       .  A
O2734      C2735   1.288       .  A
C2735      C3334   1.490       .  S
O2736     Zr2737   2.438       .  S
O2736      H2765   0.990       .  S
Zr2737     O2740   2.437       .  S
Zr2737     O2741   2.440       .  S
Zr2737     O2742   2.412       .  S
O2738      C2743   1.289       .  A
O2739      H2756   0.990       .  S
O2739      H2771   0.990       .  S
O2740      H2757   0.990       .  S
O2741      H2761   0.990       .  S
O2741      H2770   0.990       .  S
O2742      C2743   1.278       .  A
C2743      C3321   1.479       .  S
O2744      H2763   0.990       .  S
O2744      H2767   0.991       .  S
O2745      H2759   0.990       .  S
O2745      H2766   0.990       .  S
O2746      C2750   1.289       .  A
O2747      C2750   1.279       .  A
O2748      H2758   0.990       .  S
O2749      H2762   0.990       .  S
C2750      C3378   1.474       .  S
Zr2773     O2774   2.439       .  S
Zr2773     O2775   2.463       .  S
Zr2773     O2776   2.455       .  S
Zr2773     O2779   2.452   1_455  S
Zr2773     O2781   2.375       .  S
Zr2773     O2782   2.379       .  S
Zr2773     O2783   2.414   1_455  S
Zr2773     O2784   2.399   1_455  S
O2774      H2830   0.990       .  S
O2774      H2838   0.990   1_455  S
O2775      C2795   1.290       .  A
O2776      C2797   1.286   1_455  A
O2777     Zr2787   2.442       .  S
O2777      C2796   1.284       .  A
O2778     Zr2786   2.458       .  S
O2778      C2797   1.287       .  A
O2779      C2796   1.289       .  A
O2780     Zr2788   2.424       .  S
O2780      C2795   1.279       .  A
O2781     Zr2786   2.401   1_455  S
O2781     Zr2788   2.387       .  S
O2782     Zr2787   2.394   1_455  S
O2782     Zr2788   2.387       .  S
O2782      H2817   0.966       .  S
O2783     Zr2786   2.395       .  S
O2783     Zr2803   2.409       .  S
O2783      H2820   0.966       .  S
O2784     Zr2787   2.390       .  S
O2784     Zr2803   2.397       .  S
Zr2785     O2810   2.440       .  S
Zr2785     O2804   2.481       .  S
Zr2785     O2812   2.449       .  S
Zr2785     O2800   2.474       .  S
Zr2785     O2791   2.407       .  S
Zr2785     O2792   2.411       .  S
Zr2785     O2793   2.383       .  S
Zr2785     O2794   2.384       .  S
Zr2786     O2805   2.435       .  S
Zr2786     O2798   2.435   1_655  S
Zr2786     O2799   2.432       .  S
Zr2786     O2792   2.406       .  S
Zr2786     O2793   2.400       .  S
Zr2787     O2789   2.436       .  S
Zr2787     O2811   2.435   1_655  S
Zr2787     O2813   2.421       .  S
Zr2787     O2791   2.406       .  S
Zr2787     O2794   2.390       .  S
Zr2788     O2814   2.436       .  S
Zr2788     O2815   2.436       .  S
Zr2788     O2790   2.437       .  S
Zr2788     O2791   2.397   1_455  S
Zr2788     O2792   2.395   1_455  S
O2789      H2826   0.990       .  S
O2790      H2821   0.990       .  S
O2790      H2835   0.990       .  S
O2792      H2818   0.965   1_655  S
O2793     Zr2803   2.378       .  S
O2794     Zr2803   2.382       .  S
O2794      H2819   0.963       .  S
C2795      C3430   1.483       .  S
C2796      C3410   1.481       .  S
C2797      C3393   1.486   1_655  S
O2798      H2834   0.990       .  S
O2799      C2801   1.284       .  A
O2800      C2801   1.291       .  A
C2801      C3266   1.486       .  S
O2802     Zr2803   2.439       .  S
O2802      H2831   0.990       .  S
Zr2803     O2806   2.440       .  S
Zr2803     O2807   2.436       .  S
Zr2803     O2808   2.434       .  S
O2804      C2809   1.294       .  A
O2805      H2822   0.990       .  S
O2805      H2837   0.990       .  S
O2806      H2823   0.990       .  S
O2807      H2827   0.990       .  S
O2807      H2836   0.990       .  S
O2808      C2809   1.282       .  A
C2809      C3309   1.490       .  S
O2810      H2829   0.989       .  S
O2810      H2833   0.991       .  S
O2811      H2825   0.990       .  S
O2811      H2832   0.990       .  S
O2812      C2816   1.287       .  A
O2813      C2816   1.280       .  A
O2814      H2824   0.990       .  S
O2815      H2828   0.990       .  S
C2816      C3250   1.470       .  S
Zr2839     O2840   2.433       .  S
Zr2839     O2841   2.443       .  S
Zr2839     O2842   2.444       .  S
Zr2839     O2845   2.473       .  S
Zr2839     O2847   2.389       .  S
Zr2839     O2848   2.383   1_554  S
Zr2839     O2849   2.416       .  S
Zr2839     O2850   2.399       .  S
O2840      H2896   0.990       .  S
O2840      H2904   0.990       .  S
O2841      C2861   1.286       .  A
O2842      C2863   1.285       .  A
O2843     Zr2853   2.457       .  S
O2843      C2862   1.289   1_556  A
O2844     Zr2852   2.446       .  S
O2844      C2863   1.285       .  A
O2845      C2862   1.291       .  A
O2846     Zr2854   2.434   1_554  S
O2846      C2861   1.282       .  A
O2847     Zr2852   2.402       .  S
O2847     Zr2854   2.373   1_554  S
O2848     Zr2853   2.403       .  S
O2848     Zr2854   2.391       .  S
O2848      H2883   0.967       .  S
O2849     Zr2852   2.417       .  S
O2849     Zr2869   2.410       .  S
O2849      H2886   0.964       .  S
O2850     Zr2853   2.391   1_554  S
O2850     Zr2869   2.397       .  S
Zr2851     O2876   2.440       .  S
Zr2851     O2870   2.480       .  S
Zr2851     O2878   2.444       .  S
Zr2851     O2866   2.457       .  S
Zr2851     O2857   2.397       .  S
Zr2851     O2858   2.418       .  S
Zr2851     O2859   2.368   1_556  S
Zr2851     O2860   2.382       .  S
Zr2852     O2871   2.435       .  S
Zr2852     O2864   2.436       .  S
Zr2852     O2865   2.462       .  S
Zr2852     O2858   2.399   1_554  S
Zr2852     O2859   2.405       .  S
Zr2853     O2855   2.436       .  S
Zr2853     O2877   2.440       .  S
Zr2853     O2879   2.462       .  S
Zr2853     O2857   2.385       .  S
Zr2853     O2860   2.405       .  S
Zr2854     O2880   2.434       .  S
Zr2854     O2881   2.435       .  S
Zr2854     O2856   2.435       .  S
Zr2854     O2857   2.384       .  S
Zr2854     O2858   2.406       .  S
O2855      H2892   0.990       .  S
O2856      H2887   0.990       .  S
O2856      H2901   0.990   1_556  S
O2858      H2884   0.967       .  S
O2859     Zr2869   2.385       .  S
O2860     Zr2869   2.390   1_556  S
O2860      H2885   0.966       .  S
C2861      C3357   1.479       .  S
C2862      C3338   1.498       .  S
C2863      C3382   1.476       .  S
O2864      H2900   0.990       .  S
O2865      C2867   1.286   1_554  A
O2866      C2867   1.289       .  A
C2867      C3610   1.490       .  S
O2868     Zr2869   2.438       .  S
O2868      H2897   0.990       .  S
Zr2869     O2872   2.438       .  S
Zr2869     O2873   2.438       .  S
Zr2869     O2874   2.436   1_554  S
O2870      C2875   1.293       .  A
O2871      H2888   0.990       .  S
O2871      H2903   0.990       .  S
O2872      H2889   0.990       .  S
O2873      H2893   0.990       .  S
O2873      H2902   0.990   1_554  S
O2874      C2875   1.281       .  A
C2875      C3669   1.494       .  S
O2876      H2895   0.990       .  S
O2876      H2899   0.990       .  S
O2877      H2891   0.990       .  S
O2877      H2898   0.990       .  S
O2878      C2882   1.288       .  A
O2879      C2882   1.288       .  A
O2880      H2890   0.990       .  S
O2881      H2894   0.990       .  S
C2882      C3646   1.480       .  S
Zr2905     O2906   2.443       .  S
Zr2905     O2907   2.449       .  S
Zr2905     O2908   2.451       .  S
Zr2905     O2911   2.427       .  S
Zr2905     O2913   2.372       .  S
Zr2905     O2914   2.380   1_565  S
Zr2905     O2915   2.411       .  S
Zr2905     O2916   2.399       .  S
O2906      H2962   0.990       .  S
O2906      H2970   0.991       .  S
O2907      C2927   1.287       .  A
O2908      C2929   1.287       .  A
O2909     Zr2919   2.464       .  S
O2909      C2928   1.287       .  A
O2910     Zr2918   2.464       .  S
O2910      C2929   1.286       .  A
O2911      C2928   1.284   1_565  A
O2912     Zr2920   2.412       .  S
O2912      C2927   1.277   1_545  A
O2913     Zr2918   2.409       .  S
O2913     Zr2920   2.385   1_565  S
O2914     Zr2919   2.390       .  S
O2914     Zr2920   2.390       .  S
O2914      H2949   0.964       .  S
O2915     Zr2918   2.407       .  S
O2915     Zr2935   2.401       .  S
O2915      H2952   0.966       .  S
O2916     Zr2919   2.392   1_565  S
O2916     Zr2935   2.390       .  S
Zr2917     O2942   2.443       .  S
Zr2917     O2936   2.455       .  S
Zr2917     O2944   2.431       .  S
Zr2917     O2932   2.454       .  S
Zr2917     O2923   2.391       .  S
Zr2917     O2924   2.412       .  S
Zr2917     O2925   2.379   1_545  S
Zr2917     O2926   2.388       .  S
Zr2918     O2937   2.436       .  S
Zr2918     O2930   2.433       .  S
Zr2918     O2931   2.458       .  S
Zr2918     O2924   2.408   1_565  S
Zr2918     O2925   2.402       .  S
Zr2919     O2921   2.438       .  S
Zr2919     O2943   2.439       .  S
Zr2919     O2945   2.436       .  S
Zr2919     O2923   2.399       .  S
Zr2919     O2926   2.402       .  S
Zr2920     O2946   2.436       .  S
Zr2920     O2947   2.436       .  S
Zr2920     O2922   2.439   1_545  S
Zr2920     O2923   2.385       .  S
Zr2920     O2924   2.397       .  S
O2921      H2958   0.990       .  S
O2922      H2953   0.990   1_565  S
O2922      H2967   0.990       .  S
O2924      H2950   0.965       .  S
O2925     Zr2935   2.386       .  S
O2926     Zr2935   2.385   1_545  S
O2926      H2951   0.965       .  S
C2927      C3481   1.468       .  S
C2928      C3466   1.475   1_545  S
C2929      C3502   1.490       .  S
O2930      H2966   0.990       .  S
O2931      C2933   1.289   1_565  A
O2932      C2933   1.287       .  A
C2933      C3538   1.487       .  S
O2934     Zr2935   2.438       .  S
O2934      H2963   0.991       .  S
Zr2935     O2938   2.437       .  S
Zr2935     O2939   2.440   1_565  S
Zr2935     O2940   2.414   1_565  S
O2936      C2941   1.287       .  A
O2937      H2954   0.990       .  S
O2937      H2969   0.990       .  S
O2938      H2955   0.990       .  S
O2939      H2959   0.990       .  S
O2939      H2968   0.990       .  S
O2940      C2941   1.278       .  A
C2941      C3553   1.476       .  S
O2942      H2961   0.991       .  S
O2942      H2965   0.990       .  S
O2943      H2957   0.990       .  S
O2943      H2964   0.990       .  S
O2944      C2948   1.284       .  A
O2945      C2948   1.283       .  A
O2946      H2956   0.990       .  S
O2947      H2960   0.990       .  S
C2948      C3598   1.464       .  S
Zr2971     O2972   2.445       .  S
Zr2971     O2973   2.469       .  S
Zr2971     O2974   2.424       .  S
Zr2971     O2977   2.463       .  S
Zr2971     O2979   2.388       .  S
Zr2971     O2980   2.384       .  S
Zr2971     O2981   2.424       .  S
Zr2971     O2982   2.399       .  S
O2972      H3028   0.991       .  S
O2972      H3036   0.991       .  S
O2973      C2993   1.290       .  A
O2974      C2995   1.282       .  A
O2975     Zr2985   2.451       .  S
O2975      C2994   1.288       .  A
O2976     Zr2984   2.458       .  S
O2976      C2995   1.288       .  A
O2977      C2994   1.288       .  A
O2978     Zr2986   2.410       .  S
O2978      C2993   1.277       .  A
O2979     Zr2984   2.403       .  S
O2979     Zr2986   2.387       .  S
O2980     Zr2985   2.398       .  S
O2980     Zr2986   2.391       .  S
O2980      H3015   0.967       .  S
O2981     Zr2984   2.410       .  S
O2981     Zr3001   2.389       .  S
O2981      H3018   0.964       .  S
O2982     Zr2985   2.391       .  S
O2982     Zr3001   2.398       .  S
Zr2983     O3008   2.446       .  S
Zr2983     O3002   2.444       .  S
Zr2983     O3010   2.447       .  S
Zr2983     O2998   2.447       .  S
Zr2983     O2989   2.399       .  S
Zr2983     O2990   2.403       .  S
Zr2983     O2991   2.378       .  S
Zr2983     O2992   2.375       .  S
Zr2984     O3003   2.436       .  S
Zr2984     O2996   2.436       .  S
Zr2984     O2997   2.469       .  S
Zr2984     O2990   2.403       .  S
Zr2984     O2991   2.402       .  S
Zr2985     O2987   2.435       .  S
Zr2985     O3009   2.435       .  S
Zr2985     O3011   2.453       .  S
Zr2985     O2989   2.395       .  S
Zr2985     O2992   2.394       .  S
Zr2986     O3012   2.436       .  S
Zr2986     O3013   2.435       .  S
Zr2986     O2988   2.436       .  S
Zr2986     O2989   2.395       .  S
Zr2986     O2990   2.387       .  S
O2987      H3024   0.990       .  S
O2988      H3019   0.990       .  S
O2988      H3033   0.990       .  S
O2990      H3016   0.966       .  S
O2991     Zr3001   2.382       .  S
O2992     Zr3001   2.373       .  S
O2992      H3017   0.965       .  S
C2993      C3549   1.481       .  S
C2994      C3570   1.493       .  S
C2995      C3589   1.474       .  S
O2996      H3032   0.990       .  S
O2997      C2999   1.289       .  A
O2998      C2999   1.288       .  A
C2999      C3278   1.486       .  S
O3000     Zr3001   2.437       .  S
O3000      H3029   0.990       .  S
Zr3001     O3004   2.437       .  S
Zr3001     O3005   2.439       .  S
Zr3001     O3006   2.430       .  S
O3002      C3007   1.289       .  A
O3003      H3020   0.990       .  S
O3003      H3035   0.990       .  S
O3004      H3021   0.990       .  S
O3005      H3025   0.990       .  S
O3005      H3034   0.990       .  S
O3006      C3007   1.280       .  A
C3007      C3302   1.478       .  S
O3008      H3027   0.990       .  S
O3008      H3031   0.990       .  S
O3009      H3023   0.990       .  S
O3009      H3030   0.990       .  S
O3010      C3014   1.288       .  A
O3011      C3014   1.287       .  A
O3012      H3022   0.990       .  S
O3013      H3026   0.990       .  S
C3014      C3258   1.481       .  S
Zr3037     O3038   2.438       .  S
Zr3037     O3039   2.464       .  S
Zr3037     O3040   2.434       .  S
Zr3037     O3043   2.451       .  S
Zr3037     O3045   2.381       .  S
Zr3037     O3046   2.378       .  S
Zr3037     O3047   2.413   1_565  S
Zr3037     O3048   2.401   1_565  S
O3038      H3094   0.990       .  S
O3038      H3102   0.990       .  S
O3039      C3059   1.291       .  A
O3040      C3061   1.283       .  A
O3041     Zr3051   2.461       .  S
O3041      C3060   1.288       .  A
O3042     Zr3050   2.420   1_565  S
O3042      C3061   1.280       .  A
O3043      C3060   1.287       .  A
O3044     Zr3052   2.431       .  S
O3044      C3059   1.280       .  A
O3045     Zr3050   2.404   1_565  S
O3045     Zr3052   2.373       .  S
O3046     Zr3051   2.407       .  S
O3046     Zr3052   2.392       .  S
O3046      H3081   0.968       .  S
O3047     Zr3050   2.414       .  S
O3047     Zr3067   2.402       .  S
O3047      H3084   0.967       .  S
O3048     Zr3051   2.392   1_545  S
O3048     Zr3067   2.404       .  S
Zr3049     O3074   2.441       .  S
Zr3049     O3068   2.458       .  S
Zr3049     O3076   2.427       .  S
Zr3049     O3064   2.451       .  S
Zr3049     O3055   2.397   1_545  S
Zr3049     O3056   2.410   1_545  S
Zr3049     O3057   2.367       .  S
Zr3049     O3058   2.384       .  S
Zr3050     O3069   2.434       .  S
Zr3050     O3062   2.435   1_545  S
Zr3050     O3063   2.453       .  S
Zr3050     O3056   2.394   1_545  S
Zr3050     O3057   2.397       .  S
Zr3051     O3053   2.435   1_565  S
Zr3051     O3075   2.440       .  S
Zr3051     O3077   2.462   1_565  S
Zr3051     O3055   2.391       .  S
Zr3051     O3058   2.408   1_565  S
Zr3052     O3078   2.434       .  S
Zr3052     O3079   2.436       .  S
Zr3052     O3054   2.438       .  S
Zr3052     O3055   2.388       .  S
Zr3052     O3056   2.402       .  S
O3053      H3090   0.990       .  S
O3054      H3085   0.990       .  S
O3054      H3099   0.990       .  S
O3056      H3082   0.965       .  S
O3057     Zr3067   2.383       .  S
O3058     Zr3067   2.391       .  S
O3058      H3083   0.965       .  S
C3059      C3733   1.487       .  S
C3060      C3690   1.488       .  S
C3061      C3710   1.457       .  S
O3062      H3098   0.990       .  S
O3063      C3065   1.286       .  A
O3064      C3065   1.286       .  A
C3065      C3529   1.481       .  S
O3066     Zr3067   2.440       .  S
O3066      H3095   0.990       .  S
Zr3067     O3070   2.435       .  S
Zr3067     O3071   2.443       .  S
Zr3067     O3072   2.431       .  S
O3068      C3073   1.288       .  A
O3069      H3086   0.990       .  S
O3069      H3101   0.990       .  S
O3070      H3087   0.990       .  S
O3071      H3091   0.990       .  S
O3071      H3100   0.990       .  S
O3072      C3073   1.280       .  A
C3073      C3566   1.486       .  S
O3074      H3093   0.990       .  S
O3074      H3097   0.990       .  S
O3075      H3089   0.990       .  S
O3075      H3096   0.990       .  S
O3076      C3080   1.284       .  A
O3077      C3080   1.288       .  A
O3078      H3088   0.990       .  S
O3079      H3092   0.990       .  S
C3080      C3546   1.475       .  S
Zr3103     O3104   2.444       .  S
Zr3103     O3105   2.472       .  S
Zr3103     O3106   2.453       .  S
Zr3103     O3109   2.449       .  S
Zr3103     O3111   2.384   1_455  S
Zr3103     O3112   2.390       .  S
Zr3103     O3113   2.418   1_455  S
Zr3103     O3114   2.398       .  S
O3104      H3160   0.990       .  S
O3104      H3168   0.991       .  S
O3105      C3125   1.290       .  A
O3106      C3127   1.286   1_455  A
O3107     Zr3117   2.433       .  S
O3107      C3126   1.285       .  A
O3108     Zr3116   2.454       .  S
O3108      C3127   1.288       .  A
O3109      C3126   1.287       .  A
O3110     Zr3118   2.428       .  S
O3110      C3125   1.281   1_655  A
O3111     Zr3116   2.405       .  S
O3111     Zr3118   2.389       .  S
O3112     Zr3117   2.399       .  S
O3112     Zr3118   2.382   1_455  S
O3112      H3147   0.965       .  S
O3113     Zr3116   2.404       .  S
O3113     Zr3133   2.388   1_655  S
O3113      H3150   0.963       .  S
O3114     Zr3117   2.392       .  S
O3114     Zr3133   2.385       .  S
Zr3115     O3140   2.442       .  S
Zr3115     O3134   2.466       .  S
Zr3115     O3142   2.447       .  S
Zr3115     O3130   2.471       .  S
Zr3115     O3121   2.404       .  S
Zr3115     O3122   2.419       .  S
Zr3115     O3123   2.378       .  S
Zr3115     O3124   2.381   1_655  S
Zr3116     O3135   2.435       .  S
Zr3116     O3128   2.436       .  S
Zr3116     O3129   2.455       .  S
Zr3116     O3122   2.410       .  S
Zr3116     O3123   2.410       .  S
Zr3117     O3119   2.435       .  S
Zr3117     O3141   2.436       .  S
Zr3117     O3143   2.455       .  S
Zr3117     O3121   2.389   1_455  S
Zr3117     O3124   2.385       .  S
Zr3118     O3144   2.436       .  S
Zr3118     O3145   2.436       .  S
Zr3118     O3120   2.437       .  S
Zr3118     O3121   2.390       .  S
Zr3118     O3122   2.404       .  S
O3119      H3156   0.990       .  S
O3120      H3151   0.990       .  S
O3120      H3165   0.990       .  S
O3122      H3148   0.969       .  S
O3123     Zr3133   2.382   1_655  S
O3124     Zr3133   2.380       .  S
O3124      H3149   0.964       .  S
C3125      C3401   1.491       .  S
C3126      C3445   1.475       .  S
C3127      C3386   1.481       .  S
O3128      H3164   0.990       .  S
O3129      C3131   1.285       .  A
O3130      C3131   1.292       .  A
C3131      C3738   1.494       .  S
O3132     Zr3133   2.438       .  S
O3132      H3161   0.991       .  S
Zr3133     O3136   2.438   1_455  S
Zr3133     O3137   2.439       .  S
Zr3133     O3138   2.407   1_455  S
O3134      C3139   1.289       .  A
O3135      H3152   0.990       .  S
O3135      H3167   0.990       .  S
O3136      H3153   0.990       .  S
O3137      H3157   0.990       .  S
O3137      H3166   0.990       .  S
O3138      C3139   1.278       .  A
C3139      C3674   1.479       .  S
O3140      H3159   0.991       .  S
O3140      H3163   0.990       .  S
O3141      H3155   0.990       .  S
O3141      H3162   0.990       .  S
O3142      C3146   1.288       .  A
O3143      C3146   1.287   1_455  A
O3144      H3154   0.990       .  S
O3145      H3158   0.990       .  S
C3146      C3694   1.481       .  S
C3169      C3170   1.366       .  D
C3169      H3171   1.086   1_554  S
C3170      H3172   1.087       .  S
C3173      C3174   1.353       .  D
C3173      H3175   1.086       .  S
C3174      H3176   1.087   1_565  S
C3177      C3178   1.363       .  D
C3177      H3179   1.086       .  S
C3178      H3180   1.085       .  S
C3181      C3182   1.346   1_554  D
C3181      H3183   1.089       .  S
C3182      H3184   1.087       .  S
C3185      C3186   1.365   1_556  D
C3185      H3187   1.086       .  S
C3186      H3188   1.086       .  S
C3189      C3190   1.358       .  D
C3189      H3191   1.085   1_554  S
C3190      H3192   1.085       .  S
C3193      C3194   1.364       .  D
C3193      H3195   1.086       .  S
C3194      H3196   1.087       .  S
C3197      C3198   1.338   1_455  D
C3197      H3199   1.086       .  S
C3198      H3200   1.088       .  S
C3201      C3202   1.340       .  D
C3201      H3203   1.088       .  S
C3202      H3204   1.088       .  S
C3205      C3206   1.349       .  D
C3205      H3207   1.086   1_545  S
C3206      H3208   1.086       .  S
C3209      C3210   1.346   1_545  D
C3209      H3211   1.079   1_655  S
C3210      H3212   1.086       .  S
C3213      C3214   1.347       .  D
C3213      H3215   1.087   1_655  S
C3214      H3216   1.086       .  S
C3217      C3218   1.337       .  D
C3217      H3219   1.087       .  S
C3218      H3220   1.087       .  S
C3221      C3222   1.335       .  D
C3221      H3223   1.086       .  S
C3222      H3224   1.086       .  S
C3225      C3226   1.339       .  D
C3225      H3227   1.088       .  S
C3226      H3228   1.087       .  S
C3229      C3230   1.351       .  D
C3229      H3231   1.088       .  S
C3230      H3232   1.086       .  S
C3233      C3234   1.353       .  D
C3233      H3235   1.088       .  S
C3234      H3236   1.086       .  S
C3237      C3238   1.354       .  D
C3237      H3239   1.087       .  S
C3238      H3240   1.087       .  S
C3241      C3242   1.344       .  D
C3241      H3243   1.087       .  S
C3242      H3244   1.087       .  S
C3245      C3246   1.350       .  D
C3245      H3247   1.087       .  S
C3246      H3248   1.087       .  S
C3249      C3250   1.341       .  D
C3249      H3251   1.087       .  S
C3250      H3252   1.087       .  S
C3253      C3254   1.343       .  D
C3253      H3255   1.087       .  S
C3254      H3256   1.088       .  S
C3257      C3258   1.357       .  D
C3257      H3259   1.086       .  S
C3258      H3260   1.088       .  S
C3261      C3262   1.360       .  D
C3261      H3263   1.086       .  S
C3262      H3264   1.087       .  S
C3265      C3266   1.356       .  D
C3265      H3267   1.086       .  S
C3266      H3268   1.087       .  S
C3269      C3270   1.339       .  D
C3269      H3271   1.088       .  S
C3270      H3272   1.088       .  S
C3273      C3274   1.342       .  D
C3273      H3275   1.087       .  S
C3274      H3276   1.087       .  S
C3277      C3278   1.362       .  D
C3277      H3279   1.085       .  S
C3278      H3280   1.088       .  S
C3281      C3282   1.355       .  D
C3281      H3283   1.088       .  S
C3282      H3284   1.086       .  S
C3285      C3286   1.350       .  D
C3285      H3287   1.086       .  S
C3286      H3288   1.087       .  S
C3289      C3290   1.338       .  D
C3289      H3291   1.086       .  S
C3290      H3292   1.087       .  S
C3293      C3294   1.336       .  D
C3293      H3295   1.086       .  S
C3294      H3296   1.086       .  S
C3297      C3298   1.333       .  D
C3297      H3299   1.088       .  S
C3298      H3300   1.088       .  S
C3301      C3302   1.364       .  D
C3301      H3303   1.085       .  S
C3302      H3304   1.087       .  S
C3305      C3306   1.361       .  D
C3305      H3307   1.086       .  S
C3306      H3308   1.086       .  S
C3309      C3310   1.363       .  D
C3309      H3311   1.088       .  S
C3310      H3312   1.085       .  S
C3313      C3314   1.356       .  D
C3313      H3315   1.086       .  S
C3314      H3316   1.084       .  S
C3317      C3318   1.357       .  D
C3317      H3319   1.088       .  S
C3318      H3320   1.086       .  S
C3321      C3322   1.356       .  D
C3321      H3323   1.088       .  S
C3322      H3324   1.086       .  S
C3325      C3326   1.341       .  D
C3325      H3327   1.086       .  S
C3326      H3328   1.086       .  S
C3329      C3330   1.353   1_554  D
C3329      H3331   1.086       .  S
C3330      H3332   1.089       .  S
C3333      C3334   1.358       .  D
C3333      H3335   1.086       .  S
C3334      H3336   1.087       .  S
C3337      C3338   1.361       .  D
C3337      H3339   1.086       .  S
C3338      H3340   1.087       .  S
C3341      C3342   1.339       .  D
C3341      H3343   1.088       .  S
C3342      H3344   1.087       .  S
C3345      C3346   1.338       .  D
C3345      H3347   1.088       .  S
C3346      H3348   1.088       .  S
C3349      C3350   1.360   1_556  D
C3349      H3351   1.085       .  S
C3350      H3352   1.087       .  S
C3353      C3354   1.355       .  D
C3353      H3355   1.087       .  S
C3354      H3356   1.086       .  S
C3357      C3358   1.355       .  D
C3357      H3359   1.089       .  S
C3358      H3360   1.085       .  S
C3361      C3362   1.342       .  D
C3361      H3363   1.088       .  S
C3362      H3364   1.087       .  S
C3365      C3366   1.342       .  D
C3365      H3367   1.087       .  S
C3366      H3368   1.088       .  S
C3369      C3370   1.337       .  D
C3369      H3371   1.088       .  S
C3370      H3372   1.087       .  S
C3373      C3374   1.337       .  D
C3373      H3375   1.087       .  S
C3374      H3376   1.089       .  S
C3377      C3378   1.343       .  D
C3377      H3379   1.087       .  S
C3378      H3380   1.087       .  S
C3381      C3382   1.349       .  D
C3381      H3383   1.086       .  S
C3382      H3384   1.087       .  S
C3385      C3386   1.356   1_455  D
C3385      H3387   1.086       .  S
C3386      H3388   1.087       .  S
C3389      C3390   1.356       .  D
C3389      H3391   1.086       .  S
C3390      H3392   1.087       .  S
C3393      C3394   1.359   1_455  D
C3393      H3395   1.088       .  S
C3394      H3396   1.086       .  S
C3397      C3398   1.340       .  D
C3397      H3399   1.086       .  S
C3398      H3400   1.088       .  S
C3401      C3402   1.357       .  D
C3401      H3403   1.087       .  S
C3402      H3404   1.086       .  S
C3405      C3406   1.360       .  D
C3405      H3407   1.088       .  S
C3406      H3408   1.086       .  S
C3409      C3410   1.354       .  D
C3409      H3411   1.086       .  S
C3410      H3412   1.090       .  S
C3413      C3414   1.342       .  D
C3413      H3415   1.087       .  S
C3414      H3416   1.088       .  S
C3417      C3418   1.342       .  D
C3417      H3419   1.088       .  S
C3418      H3420   1.088       .  S
C3421      C3422   1.357       .  D
C3421      H3423   1.086       .  S
C3422      H3424   1.088       .  S
C3425      C3426   1.346       .  D
C3425      H3427   1.087       .  S
C3426      H3428   1.087       .  S
C3429      C3430   1.364       .  D
C3429      H3431   1.085       .  S
C3430      H3432   1.087       .  S
C3433      C3434   1.343       .  D
C3433      H3435   1.088       .  S
C3434      H3436   1.088       .  S
C3437      C3438   1.344       .  D
C3437      H3439   1.086       .  S
C3438      H3440   1.087       .  S
C3441      C3442   1.344       .  D
C3441      H3443   1.087       .  S
C3442      H3444   1.087       .  S
C3445      C3446   1.350       .  D
C3445      H3447   1.087       .  S
C3446      H3448   1.087       .  S
C3449      C3450   1.352       .  D
C3449      H3451   1.088       .  S
C3450      H3452   1.086       .  S
C3453      C3454   1.338       .  D
C3453      H3455   1.086       .  S
C3454      H3456   1.088       .  S
C3457      C3458   1.365       .  D
C3457      H3459   1.085       .  S
C3458      H3460   1.089       .  S
C3461      C3462   1.352       .  D
C3461      H3463   1.087       .  S
C3462      H3464   1.087       .  S
C3465      C3466   1.351   1_545  D
C3465      H3467   1.086       .  S
C3466      H3468   1.087       .  S
C3469      C3470   1.348       .  D
C3469      H3471   1.087       .  S
C3470      H3472   1.086       .  S
C3473      C3474   1.366       .  D
C3473      H3475   1.087       .  S
C3474      H3476   1.085       .  S
C3477      C3478   1.347       .  D
C3477      H3479   1.086       .  S
C3478      H3480   1.087       .  S
C3481      C3482   1.355       .  D
C3481      H3483   1.088       .  S
C3482      H3484   1.086   1_565  S
C3485      C3486   1.342       .  D
C3485      H3487   1.087       .  S
C3486      H3488   1.088       .  S
C3489      C3490   1.351       .  D
C3489      H3491   1.087       .  S
C3490      H3492   1.084       .  S
C3493      C3494   1.350       .  D
C3493      H3495   1.087       .  S
C3494      H3496   1.086       .  S
C3497      C3498   1.353       .  D
C3497      H3499   1.089       .  S
C3498      H3500   1.086       .  S
C3501      C3502   1.362       .  D
C3501      H3503   1.085       .  S
C3502      H3504   1.086       .  S
C3505      C3506   1.344       .  D
C3505      H3507   1.089       .  S
C3506      H3508   1.087       .  S
C3509      C3510   1.342       .  D
C3509      H3511   1.087       .  S
C3510      H3512   1.089       .  S
C3513      C3514   1.350       .  D
C3513      H3515   1.085       .  S
C3514      H3516   1.085       .  S
C3517      C3518   1.353       .  D
C3517      H3519   1.088       .  S
C3518      H3520   1.086       .  S
C3521      C3522   1.346       .  D
C3521      H3523   1.085       .  S
C3522      H3524   1.087       .  S
C3525      C3526   1.369       .  D
C3525      H3527   1.085       .  S
C3526      H3528   1.087       .  S
C3529      C3530   1.357       .  D
C3529      H3531   1.088       .  S
C3530      H3532   1.085   1_545  S
C3533      C3534   1.353       .  D
C3533      H3535   1.085       .  S
C3534      H3536   1.090       .  S
C3537      C3538   1.356       .  D
C3537      H3539   1.086       .  S
C3538      H3540   1.086   1_545  S
C3541      C3542   1.342       .  D
C3541      H3543   1.086       .  S
C3542      H3544   1.086       .  S
C3545      C3546   1.348       .  D
C3545      H3547   1.086       .  S
C3546      H3548   1.089       .  S
C3549      C3550   1.358       .  D
C3549      H3551   1.088       .  S
C3550      H3552   1.086       .  S
C3553      C3554   1.353       .  D
C3553      H3555   1.088       .  S
C3554      H3556   1.086       .  S
C3557      C3558   1.340       .  D
C3557      H3559   1.088       .  S
C3558      H3560   1.088       .  S
C3561      C3562   1.339       .  D
C3561      H3563   1.088       .  S
C3562      H3564   1.088       .  S
C3565      C3566   1.363       .  D
C3565      H3567   1.085       .  S
C3566      H3568   1.087       .  S
C3569      C3570   1.358       .  D
C3569      H3571   1.086       .  S
C3570      H3572   1.087       .  S
C3573      C3574   1.345       .  D
C3573      H3575   1.087       .  S
C3574      H3576   1.088       .  S
C3577      C3578   1.341       .  D
C3577      H3579   1.089       .  S
C3578      H3580   1.087       .  S
C3581      C3582   1.339       .  D
C3581      H3583   1.087       .  S
C3582      H3584   1.087       .  S
C3585      C3586   1.336       .  D
C3585      H3587   1.087       .  S
C3586      H3588   1.088       .  S
C3589      C3590   1.351       .  D
C3589      H3591   1.087       .  S
C3590      H3592   1.087       .  S
C3593      C3594   1.352       .  D
C3593      H3595   1.089       .  S
C3594      H3596   1.085       .  S
C3597      C3598   1.339       .  D
C3597      H3599   1.086       .  S
C3598      H3600   1.089       .  S
C3601      C3602   1.358       .  D
C3601      H3603   1.089       .  S
C3602      H3604   1.085       .  S
C3605      C3606   1.361       .  D
C3605      H3607   1.086       .  S
C3606      H3608   1.087       .  S
C3609      C3610   1.369       .  D
C3609      H3611   1.085   1_556  S
C3610      H3612   1.087       .  S
C3613      C3614   1.342       .  D
C3613      H3615   1.087       .  S
C3614      H3616   1.088       .  S
C3617      C3618   1.348       .  D
C3617      H3619   1.087       .  S
C3618      H3620   1.086       .  S
C3621      C3622   1.359       .  D
C3621      H3623   1.086       .  S
C3622      H3624   1.086       .  S
C3625      C3626   1.357       .  D
C3625      H3627   1.087       .  S
C3626      H3628   1.086       .  S
C3629      C3630   1.338       .  D
C3629      H3631   1.087       .  S
C3630      H3632   1.088       .  S
C3633      C3634   1.342       .  D
C3633      H3635   1.086       .  S
C3634      H3636   1.089       .  S
C3637      C3638   1.358       .  D
C3637      H3639   1.086       .  S
C3638      H3640   1.087       .  S
C3641      C3642   1.359       .  D
C3641      H3643   1.086       .  S
C3642      H3644   1.087       .  S
C3645      C3646   1.348       .  D
C3645      H3647   1.086       .  S
C3646      H3648   1.089       .  S
C3649      C3650   1.339       .  D
C3649      H3651   1.087       .  S
C3650      H3652   1.089       .  S
C3653      C3654   1.345       .  D
C3653      H3655   1.087       .  S
C3654      H3656   1.087       .  S
C3657      C3658   1.346   1_554  D
C3657      H3659   1.087       .  S
C3658      H3660   1.089       .  S
C3661      C3662   1.365       .  D
C3661      H3663   1.087       .  S
C3662      H3664   1.085       .  S
C3665      C3666   1.369       .  D
C3665      H3667   1.085       .  S
C3666      H3668   1.087       .  S
C3669      C3670   1.364       .  D
C3669      H3671   1.085       .  S
C3670      H3672   1.085       .  S
C3673      C3674   1.350       .  D
C3673      H3675   1.086       .  S
C3674      H3676   1.088       .  S
C3677      C3678   1.356       .  D
C3677      H3679   1.086       .  S
C3678      H3680   1.082       .  S
C3681      C3682   1.342       .  D
C3681      H3683   1.088   1_556  S
C3682      H3684   1.087       .  S
C3685      C3686   1.344       .  D
C3685      H3687   1.089       .  S
C3686      H3688   1.087       .  S
C3689      C3690   1.358       .  D
C3689      H3691   1.086       .  S
C3690      H3692   1.086       .  S
C3693      C3694   1.354       .  D
C3693      H3695   1.086   1_655  S
C3694      H3696   1.086       .  S
C3697      C3698   1.348       .  D
C3697      H3699   1.088       .  S
C3698      H3700   1.086       .  S
C3701      C3702   1.346       .  D
C3701      H3703   1.087       .  S
C3702      H3704   1.086       .  S
C3705      C3706   1.339       .  D
C3705      H3707   1.086       .  S
C3706      H3708   1.086       .  S
C3709      C3710   1.345       .  D
C3709      H3711   1.086   1_565  S
C3710      H3712   1.086       .  S
C3713      C3714   1.349       .  D
C3713      H3715   1.087       .  S
C3714      H3716   1.087       .  S
C3717      C3718   1.349       .  D
C3717      H3719   1.087       .  S
C3718      H3720   1.086       .  S
C3721      C3722   1.342       .  D
C3721      H3723   1.088       .  S
C3722      H3724   1.087       .  S
C3725      C3726   1.348       .  D
C3725      H3727   1.087       .  S
C3726      H3728   1.086       .  S
C3729      C3730   1.335       .  D
C3729      H3731   1.087       .  S
C3730      H3732   1.088       .  S
C3733      C3734   1.362       .  D
C3733      H3735   1.087       .  S
C3734      H3736   1.085       .  S
C3737      C3738   1.367       .  D
C3737      H3739   1.085       .  S
C3738      H3740   1.087       .  S
C3741      C3742   1.358       .  D
C3741      H3743   1.089       .  S
C3742      H3744   1.085       .  S
