geometry optimzed in LAMMPS
_audit_creation_date              2020-12-01 
_audit_creation_method            'lammps2cif' 
_symmetry_space_group_name_H-M    'P1' 
_symmetry_Int_Tables_number       1 
_symmetry_cell_setting            triclinic 
loop_ 
_symmetry_equiv_pos_as_xyz 
  x,y,z 
_cell_length_a                    36.67221789 
_cell_length_b                    37.126811064477614 
_cell_length_c                    26.28926527373057 
_cell_angle_alpha                 89.88352115918673 
_cell_angle_beta                  90.13529325557745 
_cell_angle_gamma                 121.66363397229294 
loop_ 
_atom_site_label 
_atom_site_type_symbol 
_atom_site_fract_x 
_atom_site_fract_y 
_atom_site_fract_z 
_atom_site_charge 
Fe1        Fe  0.53379861  0.60420216  0.25037758     1.65800
Fe2        Fe  0.49399778  0.66832019  0.25776270     1.73200
Fe3        Fe  0.60309717  0.71175391  0.24489669     1.54400
O4          O  0.62792483  0.68751469  0.29829251    -0.80400
O5          O  0.51350398  0.70957829  0.19876438    -0.78700
O6          O  0.57715018  0.61923860  0.30652069    -0.82900
O7          O  0.57906812  0.61751101  0.19499072    -0.77700
O8          O  0.59480676  0.74339089  0.30505361    -0.79500
O9          O  0.45671835  0.62020106  0.20617972    -0.82200
C10         C  0.60860195  0.64929845  0.17134799     0.98500
C11         C  0.61225145  0.65158687  0.32005751     1.06000
O12         O  0.54379227  0.66167519  0.25090056    -1.11200
O13         O  0.46814059  0.62807983  0.31856536    -0.73700
O14         O  0.48650842  0.58057409  0.30606308    -0.77100
O15         O  0.61969353  0.68692162  0.18340614    -0.77800
C16         C  0.46571253  0.59383574  0.32985328     0.97400
O17         O  0.48949088  0.58462470  0.19380643    -0.75800
O18         O  0.52456297  0.71725242  0.30926813    -0.81000
C19         C  0.54869640  0.73688261  0.17889499     1.00100
C20         C  0.56267094  0.74283749  0.32412334     1.06000
O21         O  0.58469907  0.74203474  0.19207190    -0.76600
C22         C  0.46038172  0.59209533  0.18339613     1.04300
Fe23       Fe  0.37809273  0.43730682  0.00201384     1.65800
Fe24       Fe  0.32715798  0.48970751  0.50198130     1.73200
Fe25       Fe  0.27702375  0.38085763  0.50137257     1.54400
O26         O  0.30182545  0.35892793  0.44697686    -0.80400
O27         O  0.28175956  0.47394928  0.05916168    -0.78700
O28         O  0.36873782  0.38892222  0.47412272    -0.82900
O29         O  0.35585020  0.39532962  0.06183274    -0.77700
O30         O  0.25044122  0.39654247  0.44225964    -0.79500
O31         O  0.37239849  0.51627558  0.06519257    -0.82200
C32         C  0.31907626  0.36574802  0.07605750     0.98500
C33         C  0.33829448  0.36288415  0.44618135     1.06000
O34         O  0.32930832  0.43790251  0.50495570    -1.11200
O35         O  0.37775694  0.51705065  0.44926401    -0.73700
O36         O  0.40683277  0.47678666  0.44669070    -0.77100
O37         O  0.28453706  0.35652394  0.05299911    -0.77800
C38         C  0.40343529  0.50709715  0.43013111     0.97400
O39         O  0.40952799  0.48512317  0.05467432    -0.75800
O40         O  0.28381447  0.46703447  0.44156801    -0.81000
C41         C  0.25109220  0.43800479  0.07360702     1.00100
C42         C  0.25565486  0.43073184  0.42440241     1.06000
O43         O  0.24313670  0.40359510  0.05374770    -0.76600
C44         C  0.40291411  0.51135369  0.07690981     1.04300
Fe45       Fe  0.06960745  0.46166151  0.24597363     1.65800
Fe46       Fe  0.17833958  0.51590245  0.25784844     1.73200
Fe47       Fe  0.12095014  0.40694154  0.24865321     1.54400
O48         O  0.07398499  0.37912346  0.30476328    -0.80400
O49         O  0.20834417  0.49899853  0.20489663    -0.78700
O50         O  0.03648734  0.41003319  0.29337557    -0.82900
O51         O  0.05014743  0.42504677  0.18223940    -0.77700
O52         O  0.16739281  0.42453264  0.30603856    -0.79500
O53         O  0.16563112  0.54422174  0.19867629    -0.82200
C54         C  0.05353032  0.39493962  0.16611031     0.98500
C55         C  0.04236647  0.38293163  0.31524589     1.06000
O56         O  0.12308508  0.46146392  0.25108669    -1.11200
O57         O  0.15522729  0.53999907  0.31204664    -0.73700
O58         O  0.08397560  0.49906173  0.30909770    -0.77100
O59         O  0.07537193  0.38216900  0.18912433    -0.77800
C60         C  0.11817048  0.52890476  0.32856402     0.97400
O61         O  0.09476727  0.51281737  0.19695858    -0.75800
O62         O  0.19865962  0.49427392  0.31666992    -0.81000
C63         C  0.19982812  0.46527398  0.18227358     1.00100
C64         C  0.19408607  0.45903738  0.32843510     1.06000
O65         O  0.16753727  0.42913693  0.19314741    -0.76600
C66         C  0.13168627  0.53997910  0.18030162     1.04300
Fe67       Fe  0.54143533  0.92625228  0.99665821     1.65800
Fe68       Fe  0.48446158  0.82059759  0.49965722     1.73200
Fe69       Fe  0.59447302  0.87508956  0.50419724     1.54400
O70         O  0.61979277  0.92043919  0.44755799    -0.80400
O71         O  0.53133172  0.81229042  0.07152236    -0.78700
O72         O  0.58634628  0.95627818  0.45308100    -0.82900
O73         O  0.59934068  0.96976018  0.02907803    -0.77700
O74         O  0.57547518  0.83028085  0.44614174    -0.79500
O75         O  0.47235495  0.84237941  0.06198882    -0.82200
C76         C  0.62586207  0.96690047  0.05695584     0.98500
C77         C  0.61296279  0.94882442  0.43224996     1.06000
O78         O  0.54004823  0.87473339  0.50478606    -1.11200
O79         O  0.46090768  0.84192950  0.44297010    -0.73700
O80         O  0.49499709  0.91161804  0.45427410    -0.77100
O81         O  0.63153330  0.93603391  0.05348937    -0.77800
C82         C  0.46774335  0.87814575  0.43126482     0.97400
O83         O  0.51397021  0.91278355  0.06728743    -0.75800
O84         O  0.50446970  0.79727280  0.44271966    -0.81000
C85         C  0.56938313  0.82021190  0.07733850     1.00100
C86         C  0.53962656  0.80293021  0.42684768     1.06000
O87         O  0.60051964  0.84666223  0.04988324    -0.76600
C88         C  0.48283681  0.87752845  0.08255795     1.04300
Fe89       Fe  0.93734164  0.38733714  0.00255922     1.65800
Fe90       Fe  0.81575127  0.30832925  0.49753821     1.73200
Fe91       Fe  0.88944876  0.27744648  0.48880174     1.54400
O92         O  0.93818484  0.31123235  0.43424117    -0.80400
O93         O  0.80715478  0.28606979  0.05888102    -0.78700
O94         O  0.94653889  0.37527323  0.43068416    -0.82900
O95         O  0.97476419  0.36920710  0.04087530    -0.77700
O96         O  0.84828787  0.24903110  0.42958955    -0.79500
O97         O  0.85127060  0.37720323  0.05275935    -0.82200
C98         C  0.96536298  0.33735483  0.06822055     0.98500
C99         C  0.95292656  0.34734176  0.41323856     1.06000
O100        O  0.87543163  0.32215704  0.49435977    -1.11200
O101        O  0.82334219  0.34902607  0.44001786    -0.73700
O102        O  0.88982517  0.40288786  0.45249953    -0.77100
O103        O  0.93135150  0.30196097  0.06085408    -0.77800
C104        C  0.85386699  0.38600197  0.42994130     0.97400
O105        O  0.91982274  0.39978920  0.07050567    -0.75800
O106        O  0.79570214  0.26149501  0.44220685    -0.81000
C107        C  0.81128781  0.25592585  0.07356490     1.00100
C108        C  0.81226676  0.24365442  0.41842385     1.06000
O109        O  0.83882946  0.24850338  0.05395322    -0.76600
C110        C  0.88533860  0.39870607  0.07977014     1.04300
Fe111      Fe  0.60626903  0.04435941  0.24583037     1.65800
Fe112      Fe  0.66056559  0.15129154  0.23543285     1.73200
Fe113      Fe  0.71446693  0.10044378  0.25483395     1.54400
O114        O  0.69241523  0.06728683  0.32200450    -0.80400
O115        O  0.71523731  0.17786922  0.18751857    -0.78700
O116        O  0.62566221  0.01804798  0.30107595    -0.82900
O117        O  0.62708241  0.02257472  0.18859154    -0.77700
O118        O  0.74152953  0.15491638  0.29942346    -0.79500
O119        O  0.62313521  0.12865272  0.17184800    -0.82200
C120        C  0.66176336  0.02334700  0.18265405     0.98500
C121        C  0.65707767  0.03382882  0.33167589     1.06000
O122        O  0.66054411  0.09894084  0.24508869    -1.11200
O123        O  0.60650025  0.13135409  0.28306254    -0.73700
O124        O  0.58186983  0.06373325  0.30257629    -0.77100
O125        O  0.69469015  0.04569631  0.21050819    -0.77800
C126        C  0.58218547  0.09782334  0.30890789     0.97400
O127        O  0.57758360  0.06103239  0.19115792    -0.75800
O128        O  0.69707894  0.17880300  0.29836335    -0.81000
C129        C  0.74129456  0.16710100  0.17176216     1.00100
C130        C  0.72930824  0.17916052  0.31583171     1.06000
O131        O  0.74146484  0.13546933  0.18976830    -0.76600
C132        C  0.58888381  0.09344663  0.16419255     1.04300
Fe133      Fe  0.92124151  0.53648843  0.24601813     1.65800
Fe134      Fe  0.81342085  0.48119816  0.25829862     1.73200
Fe135      Fe  0.86865262  0.58961592  0.25165826     1.54400
O136        O  0.91189611  0.61349319  0.31187994    -0.80400
O137        O  0.78259152  0.49968191  0.20858883    -0.78700
O138        O  0.95420837  0.58877481  0.29359168    -0.82900
O139        O  0.93882418  0.57355832  0.18299665    -0.77700
O140        O  0.81894800  0.56901664  0.30464497    -0.79500
O141        O  0.82509339  0.45479310  0.19653429    -0.82200
C142        C  0.94047640  0.60780458  0.17353947     0.98500
C143        C  0.94554208  0.61234289  0.31949535     1.06000
O144        O  0.86767963  0.53574481  0.25202005    -1.11200
O145        O  0.83788588  0.45596990  0.30913087    -0.73700
O146        O  0.90883186  0.49931701  0.30899040    -0.77100
O147        O  0.91918557  0.61981774  0.19885537    -0.77800
C148        C  0.87492778  0.46795579  0.32668830     0.97400
O149        O  0.89578979  0.48441420  0.19725935    -0.75800
O150        O  0.79506581  0.50115040  0.31997109    -0.81000
C151        C  0.79161708  0.53258384  0.18337150     1.00100
C152        C  0.79593843  0.53494157  0.32953968     1.06000
O153        O  0.82493214  0.56885662  0.19176735    -0.76600
C154        C  0.85881083  0.45770974  0.17974190     1.04300
Fe155      Fe  0.45539680  0.06657624  0.99598348     1.65800
Fe156      Fe  0.49142208  0.16792130  0.48515696     1.73200
Fe157      Fe  0.38398170  0.09379217  0.50733846     1.54400
O158        O  0.35841328  0.04525246  0.45310331    -0.80400
O159        O  0.48837489  0.19661501  0.06093244    -0.78700
O160        O  0.40999949  0.03150294  0.43883291    -0.82900
O161        O  0.41066734  0.03610653  0.05240943    -0.77700
O162        O  0.38628385  0.13390360  0.45089661    -0.79500
O163        O  0.53685941  0.15701903  0.05204718    -0.82200
C164        C  0.38171708  0.03927046  0.07450494     0.98500
C165        C  0.37373020  0.02639499  0.42905381     1.06000
O166        O  0.44414657  0.10858596  0.49428077    -1.11200
O167        O  0.51889108  0.15649288  0.42216812    -0.73700
O168        O  0.49958565  0.08936669  0.42996055    -0.77100
O169        O  0.37345705  0.06748102  0.06248405    -0.77800
C170        C  0.52051262  0.12476398  0.40755153     0.97400
O171        O  0.50250820  0.08659053  0.05038806    -0.75800
O172        O  0.45545181  0.18043240  0.43525070    -0.81000
C173        C  0.45290413  0.18845860  0.07917583     1.00100
C174        C  0.41573504  0.16567864  0.42721139     1.04800
O175        O  0.41695691  0.15891627  0.06247619    -0.76600
C176        C  0.53191351  0.12234776  0.06680890     1.04300
Fe177      Fe  0.58822579  0.50922347  0.99539081     1.65800
Fe178      Fe  0.66323433  0.48880577  0.50024610     1.73200
Fe179      Fe  0.69333397  0.59416714  0.49989455     1.54400
O180        O  0.66413565  0.60945426  0.44305313    -0.80400
O181        O  0.70742341  0.51028455  0.05899992    -0.78700
O182        O  0.59525524  0.56197267  0.45576540    -0.82900
O183        O  0.59815356  0.55011876  0.05323610    -0.77700
O184        O  0.72890544  0.58727246  0.44330322    -0.79500
O185        O  0.61802641  0.45034718  0.06740016    -0.82200
C186        C  0.62877947  0.58527755  0.06943564     0.98500
C187        C  0.62482070  0.59460028  0.43392284     1.06000
O188        O  0.64836640  0.53262564  0.50055417    -1.11200
O189        O  0.61658906  0.45181023  0.44550993    -0.73700
O190        O  0.57343730  0.47718195  0.43956601    -0.77100
O191        O  0.66641636  0.60393934  0.04977811    -0.77800
C192        C  0.58541870  0.45248892  0.42490539     0.97400
O193        O  0.56629748  0.46240612  0.04889668    -0.75800
O194        O  0.70637066  0.51848605  0.44218542    -0.81000
C195        C  0.73118578  0.54828436  0.07386231     1.00100
C196        C  0.73014662  0.55604072  0.42568446     1.06000
O197        O  0.72948077  0.57865457  0.05449389    -0.76600
C198        C  0.58162941  0.44507416  0.07553635     1.04300
Fe199      Fe  0.42238295  0.36893855  0.25078681     1.65800
Fe200      Fe  0.47747527  0.31816917  0.24945811     1.73200
Fe201      Fe  0.36703363  0.26035806  0.25368190     1.54400
O202        O  0.33910268  0.27984426  0.30746805    -0.80400
O203        O  0.45686227  0.27261023  0.19357841    -0.78700
O204        O  0.38021422  0.35021998  0.30964642    -0.82900
O205        O  0.37416246  0.34738890  0.19783275    -0.77700
O206        O  0.38797854  0.23753895  0.31355746    -0.79500
O207        O  0.50260028  0.36285007  0.19330609    -0.82200
C208        C  0.34772009  0.31241955  0.17695969     0.98500
C209        C  0.34921149  0.31549252  0.32593742     1.06000
O210        O  0.42225575  0.31571153  0.25150337    -1.11200
O211        O  0.50591091  0.36399654  0.30554075    -0.73700
O212        O  0.47080174  0.39793770  0.30370450    -0.77100
O213        O  0.34193446  0.27722947  0.19248922    -0.77800
C214        C  0.49999741  0.39282833  0.32118499     0.97400
O215        O  0.46481012  0.39411870  0.19145839    -0.75800
O216        O  0.45924590  0.27399769  0.30508758    -0.81000
C217        C  0.42087391  0.24095092  0.18064941     1.00100
C218        C  0.42527972  0.24585846  0.32650480     1.06000
O219        O  0.38589063  0.23257900  0.20061992    -0.76600
C220        C  0.49430174  0.38926898  0.17488690     1.04300
Fe221      Fe  0.05559683  0.60190950  0.98389305     1.65800
Fe222      Fe  0.16879190  0.68184731  0.50879972     1.73200
Fe223      Fe  0.09502134  0.71260725  0.50045853     1.54400
O224        O  0.04865398  0.68259344  0.44173533    -0.80400
O225        O  0.17200340  0.70038071  0.06947596    -0.78700
O226        O  0.04440598  0.62126217  0.42729975    -0.82900
O227        O  0.01190757  0.60880415  0.02469781    -0.77700
O228        O  0.13920723  0.74633593  0.44495073    -0.79500
O229        O  0.14013248  0.61494962  0.04853594    -0.82200
C230        C  0.01384421  0.63391841  0.05854737     0.98500
C231        C  0.03672571  0.64951372  0.41484557     1.06000
O232        O  0.10939941  0.66806434  0.50140688    -1.11200
O233        O  0.16547643  0.64447346  0.44868439    -0.73700
O234        O  0.09828403  0.59074113  0.45176710    -0.77100
O235        O  0.04550636  0.67174880  0.06237595    -0.77800
C236        C  0.13582988  0.60845646  0.43380749     0.97400
O237        O  0.06847088  0.57963547  0.04858439    -0.75800
O238        O  0.19085027  0.73197760  0.45606649    -0.81000
C239        C  0.16431628  0.72742656  0.08613751     1.00100
C240        C  0.17538431  0.75188682  0.43383942     1.06000
O241        O  0.13806896  0.73543980  0.06454095    -0.76600
C242        C  0.10378398  0.58662729  0.06647978     1.04300
Fe243      Fe  0.39020782  0.91722596  0.24259316     1.65800
Fe244      Fe  0.31571504  0.81453976  0.24100126     1.73200
Fe245      Fe  0.28659342  0.88810857  0.25228017     1.54400
O246        O  0.31780787  0.92957254  0.31151071    -0.80400
O247        O  0.26214596  0.79609477  0.19477040    -0.78700
O248        O  0.38421457  0.96090529  0.28285411    -0.82900
O249        O  0.37856240  0.93850368  0.17692554    -0.77700
O250        O  0.25271725  0.84061596  0.30851095    -0.79500
O251        O  0.35115443  0.82494114  0.17587319    -0.82200
C252        C  0.35082309  0.94831702  0.16772565     0.98500
C253        C  0.35651987  0.95948484  0.31244117     1.06000
O254        O  0.33014289  0.87296928  0.24528964    -1.11200
O255        O  0.36722511  0.82654994  0.28891567    -0.73700
O256        O  0.40169211  0.89538932  0.30852628    -0.77100
O257        O  0.31796277  0.93687744  0.19619025    -0.77800
C258        C  0.39345645  0.85802774  0.31658435     0.97400
O259        O  0.40957471  0.88340486  0.20133914    -0.75800
O260        O  0.28004094  0.79908696  0.30499745    -0.81000
C261        C  0.24160436  0.81302473  0.17885806     1.00100
C262        C  0.25660122  0.81037746  0.32569189     1.06000
O263        O  0.24945603  0.84864506  0.19432738    -0.76600
C264        C  0.39077456  0.85187640  0.17202976     1.04300
C265        C  0.19936426  0.78248395  0.39222009    -0.15100
C266        C  0.23429250  0.78575667  0.37180840    -0.30300
H267        H  0.18634580  0.80032011  0.37581474     0.13900
H268        H  0.24574020  0.76628562  0.38746158     0.14500
C269        C  0.18873754  0.74944989  0.13227986    -0.15100
C270        C  0.20761044  0.79112459  0.13980209    -0.30300
H271        H  0.19781011  0.73172266  0.15669166     0.13900
H272        H  0.19963395  0.80972050  0.11549149     0.14500
C273        C  0.56124163  0.42287097  0.38273537    -0.15100
C274        C  0.52727036  0.42213585  0.36168631    -0.30300
H275        H  0.57059080  0.40110445  0.36981856     0.13900
H276        H  0.51845190  0.44425715  0.37489431     0.14500
C277        C  0.55600613  0.41775097  0.11766139    -0.15100
C278        C  0.51999265  0.41579313  0.13239220    -0.30300
H279        H  0.56732834  0.39970231  0.13748428     0.13900
H280        H  0.50954621  0.43500165  0.11363144     0.14500
C281        C  0.34964888  0.99709126  0.38711652    -0.15100
C282        C  0.37254209  0.99362149  0.34977892    -0.30300
H283        H  0.31493193  0.97701864  0.38852587     0.13900
H284        H  0.40706233  0.01592132  0.34870877     0.14500
C285        C  0.35898016  0.97344724  0.12088739    -0.15100
C286        C  0.35794182  0.00909613  0.11681078    -0.30300
H287        H  0.37441826  0.96619392  0.09078538     0.13900
H288        H  0.34335806  0.01777889  0.14640808     0.14500
C289        C  0.41894046  0.21226816  0.14056119    -0.15100
C290        C  0.45436453  0.21560299  0.12096418    -0.30300
H291        H  0.38752099  0.18777758  0.12689627     0.13900
H292        H  0.48573573  0.23996375  0.13492330     0.14500
C293        C  0.43249733  0.22342240  0.36795491    -0.15100
C294        C  0.40296800  0.18644925  0.38874493    -0.30300
H295        H  0.46565916  0.23767607  0.38001214     0.13900
H296        H  0.36959557  0.17138094  0.37741809     0.14500
C297        C  0.97496189  0.63756672  0.36189612    -0.15100
C298        C  0.01368288  0.64196303  0.36616836    -0.30300
H299        H  0.96287446  0.64803152  0.39255104     0.13900
H300        H  0.02440069  0.62990803  0.33575517     0.14500
C301        C  0.97818811  0.61479180  0.09515603    -0.15100
C302        C  0.96985511  0.63435474  0.13216928    -0.30300
H303        H  0.95836489  0.58040058  0.09309916     0.13900
H304        H  0.98685630  0.66865056  0.13438641     0.14500
C305        C  0.76141602  0.52633810  0.14216556    -0.15100
C306        C  0.76243513  0.55769602  0.11533534    -0.30300
H307        H  0.73666201  0.49377361  0.13390806     0.13900
H308        H  0.78610584  0.59047310  0.12414508     0.14500
C309        C  0.76779106  0.53245696  0.37111585    -0.15100
C310        C  0.76091650  0.56339615  0.38447308    -0.30300
H311        H  0.75070902  0.50233947  0.39105826     0.13900
H312        H  0.77804324  0.59394943  0.36558979     0.14500
C313        C  0.54869485  0.12923675  0.36369791    -0.15100
C314        C  0.55256069  0.09655004  0.34868041    -0.30300
H315        H  0.56760569  0.15983011  0.34518668     0.13900
H316        H  0.53341006  0.06633010  0.36799274     0.14500
C317        C  0.55997740  0.08999604  0.12352583    -0.15100
C318        C  0.56229634  0.12460315  0.10461085    -0.30300
H319        H  0.53459511  0.05861199  0.11162958     0.13900
H320        H  0.58689990  0.15583513  0.11800031     0.14500
C321        C  0.75275607  0.20913848  0.35724773    -0.15100
C322        C  0.78919151  0.21464448  0.37611081    -0.30300
H323        H  0.73955987  0.22708360  0.37264034     0.13900
H324        H  0.80281838  0.19733572  0.35993180     0.14500
C325        C  0.78124721  0.22973200  0.11509676    -0.15100
C326        C  0.77342255  0.19195625  0.13110635    -0.30300
H327        H  0.76293936  0.24196776  0.13214689     0.13900
H328        H  0.79138735  0.17913047  0.11468407     0.14500
C329        C  0.84710908  0.40970703  0.38971921    -0.15100
C330        C  0.87994098  0.44502289  0.36928823    -0.30300
H331        H  0.81487200  0.39666122  0.37483160     0.13900
H332        H  0.91227322  0.45720456  0.38341278     0.14500
C333        C  0.88710610  0.42526074  0.12277457    -0.15100
C334        C  0.85421340  0.42880389  0.13789124    -0.30300
H335        H  0.91768771  0.44358615  0.14232338     0.13900
H336        H  0.82324802  0.41011037  0.11934466     0.14500
C337        C  0.63420756  0.97197844  0.38551529    -0.15100
C338        C  0.65070084  0.01364005  0.38154816    -0.30300
H339        H  0.63220013  0.95373691  0.35219447     0.13900
H340        H  0.65490557  0.03236620  0.41523458     0.14500
C341        C  0.66246496  0.99723129  0.14055568    -0.15100
C342        C  0.64805992  0.00101088  0.09496542    -0.30300
H343        H  0.66669803  0.97100101  0.14887994     0.13900
H344        H  0.64413023  0.02787159  0.08947166     0.14500
C345        C  0.41553801  0.85082392  0.35915162    -0.15100
C346        C  0.44382745  0.88289349  0.38908382    -0.30300
H347        H  0.40874010  0.81899692  0.36569533     0.13900
H348        H  0.45053677  0.91464204  0.38199138     0.14500
C349        C  0.45739874  0.87815364  0.12488896    -0.15100
C350        C  0.41637890  0.84714712  0.13265688    -0.30300
H351        H  0.47187458  0.90679864  0.14771585     0.13900
H352        H  0.40111533  0.81931927  0.10842407     0.14500
C353        C  0.11297421  0.55092855  0.37196784    -0.15100
C354        C  0.14493642  0.58657903  0.39326065    -0.30300
H355        H  0.08043079  0.53774233  0.38561927     0.13900
H356        H  0.17746993  0.60077295  0.37923722     0.14500
C357        C  0.13565851  0.56742595  0.13709795    -0.15100
C358        C  0.10133233  0.56026528  0.11003515    -0.30300
H359        H  0.16745613  0.59311657  0.12641502     0.13900
H360        H  0.06965928  0.53438548  0.12084128     0.14500
C361        C  0.01198368  0.35657927  0.35633765    -0.15100
C362        C  0.97710360  0.35885666  0.36517747    -0.30300
H363        H  0.02056058  0.33943818  0.38237170     0.13900
H364        H  0.97010602  0.37743909  0.33946005     0.14500
C365        C  0.03314039  0.37731115  0.11640461    -0.15100
C366        C  0.99359233  0.34268721  0.11205081    -0.30300
H367        H  0.04600414  0.39931588  0.08466857     0.13900
H368        H  0.97968168  0.32103221  0.14400022     0.14500
C369        C  0.32569911  0.31822726  0.36952797    -0.15100
C370        C  0.34907140  0.33961859  0.41019050    -0.30300
H371        H  0.29296082  0.31051921  0.36465846     0.13900
H372        H  0.38179466  0.34649436  0.41263839     0.14500
C373        C  0.31729679  0.34553734  0.12523756    -0.15100
C374        C  0.32572833  0.31446866  0.13039954    -0.30300
H375        H  0.32024748  0.36418343  0.15855850     0.13900
H376        H  0.32330752  0.29544198  0.09775183     0.14500
C377        C  0.22231570  0.46009058  0.36973139    -0.15100
C378        C  0.22670897  0.42745611  0.38249869    -0.30300
H379        H  0.24140449  0.48995471  0.38972991     0.13900
H380        H  0.20746066  0.39725594  0.36329052     0.14500
C381        C  0.22900598  0.46891827  0.14125805    -0.15100
C382        C  0.22275708  0.43506737  0.11518948    -0.30300
H383        H  0.25606754  0.50021403  0.13212601     0.13900
H384        H  0.19584268  0.40377922  0.12468061     0.14500
C385        C  0.63443897  0.64531393  0.36333822    -0.15100
C386        C  0.61019941  0.61311310  0.39552108    -0.30300
H387        H  0.66903065  0.66434902  0.36702579     0.13900
H388        H  0.57553607  0.59638686  0.39155191     0.14500
C389        C  0.61783193  0.60104909  0.11550955    -0.15100
C390        C  0.62982071  0.64124485  0.12755971    -0.30300
H391        H  0.59344165  0.57572809  0.13895816     0.13900
H392        H  0.65296330  0.66742418  0.10412648     0.14500
C393        C  0.43246366  0.53697946  0.11783552    -0.15100
C394        C  0.42952996  0.56688896  0.14303592    -0.30300
H395        H  0.45782694  0.53115797  0.12708772     0.13900
H396        H  0.40436991  0.57300070  0.13383586     0.14500
C397        C  0.43699663  0.56882384  0.37218256    -0.15100
C398        C  0.43133318  0.53163105  0.38705253    -0.30300
H399        H  0.42004843  0.58153417  0.39171433     0.13900
H400        H  0.44889473  0.51930227  0.36815559     0.14500
C401        C  0.57779330  0.79694763  0.11687287    -0.15100
C402        C  0.54503717  0.76285569  0.13920634    -0.30300
H403        H  0.61061887  0.80679757  0.12625739     0.13900
H404        H  0.51249988  0.75336488  0.12858258     0.14500
C405        C  0.53676839  0.77542197  0.38435020    -0.15100
C406        C  0.56971139  0.77324879  0.36543983    -0.30300
H407        H  0.50490508  0.75475465  0.36872987     0.13900
H408        H  0.60180007  0.79360939  0.38051875     0.14500
Fe409      Fe  0.53255985  0.60763152  0.75290088     1.65800
Fe410      Fe  0.50106256  0.67837693  0.75924759     1.73200
Fe411      Fe  0.60908368  0.71360414  0.75048842     1.54400
O412        O  0.62961257  0.68582411  0.80342456    -0.80400
O413        O  0.52560076  0.72055959  0.69953536    -0.78700
O414        O  0.57611631  0.61843250  0.80822217    -0.82900
O415        O  0.57629932  0.61876443  0.69781734    -0.77700
O416        O  0.60391470  0.74694179  0.80927264    -0.79500
O417        O  0.46089825  0.63209275  0.70652540    -0.82200
C418        C  0.60875300  0.64978041  0.67702437     0.98500
C419        C  0.61262704  0.64878926  0.82203587     1.06000
O420        O  0.54767731  0.66670650  0.75433344    -1.11200
O421        O  0.47098293  0.63712573  0.82001327    -0.73700
O422        O  0.48663357  0.58742645  0.80886762    -0.77100
O423        O  0.62360717  0.68763794  0.69050536    -0.77800
C424        C  0.46695628  0.60206831  0.83211419     0.97400
O425        O  0.48766618  0.59098146  0.69632801    -0.75800
O426        O  0.53484509  0.72632467  0.81153430    -0.81000
C427        C  0.56263273  0.74519277  0.68104099     1.00100
C428        C  0.57330336  0.74935797  0.82711137     1.06000
O429        O  0.59610628  0.74681511  0.69738302    -0.76600
C430        C  0.46118092  0.60180954  0.68443316     1.04300
Fe431      Fe  0.38484873  0.44295233  0.51303001     1.65800
Fe432      Fe  0.33016919  0.49500087  0.00562330     1.73200
Fe433      Fe  0.26872713  0.38630587  0.99631859     1.54400
O434        O  0.28622351  0.36134585  0.93766227    -0.80400
O435        O  0.27718169  0.46662406  0.55394816    -0.78700
O436        O  0.35582108  0.38882368  0.94996325    -0.82900
O437        O  0.36435988  0.41052235  0.57961047    -0.77700
O438        O  0.24638987  0.41088138  0.94078428    -0.79500
O439        O  0.36891660  0.51974513  0.56348716    -0.82200
C440        C  0.32988837  0.37646371  0.59068037     0.98500
C441        C  0.32106332  0.36375306  0.92706954     1.06000
O442        O  0.32554094  0.43952301  0.00111045    -1.11200
O443        O  0.37973413  0.52317137  0.95255890    -0.73700
O444        O  0.40455751  0.47998839  0.94260614    -0.77100
O445        O  0.29719574  0.35852009  0.56161636    -0.77800
C446        C  0.40389230  0.51285832  0.93062207     0.97400
O447        O  0.41374840  0.49746632  0.55455559    -0.75800
O448        O  0.28811989  0.48116540  0.94712542    -0.81000
C449        C  0.24900029  0.42997987  0.57016484     1.00100
C450        C  0.25743320  0.44824997  0.92692271     1.06000
O451        O  0.24584019  0.39616455  0.55431421    -0.76600
C452        C  0.40321914  0.52120331  0.57528440     1.04300
Fe453      Fe  0.06676677  0.45826058  0.74272305     1.65800
Fe454      Fe  0.17412019  0.50301410  0.75807168     1.73200
Fe455      Fe  0.10946467  0.39626541  0.73540046     1.54400
O456        O  0.06389887  0.36940178  0.79263884    -0.80400
O457        O  0.20304378  0.48531981  0.70427343    -0.78700
O458        O  0.02835504  0.40273705  0.78537118    -0.82900
O459        O  0.04853520  0.42880534  0.67477495    -0.77700
O460        O  0.15410053  0.40548223  0.79024154    -0.79500
O461        O  0.16795571  0.53826504  0.70110268    -0.82200
C462        C  0.04711129  0.39691519  0.65623355     0.98500
C463        C  0.03394308  0.37484603  0.80622146     1.06000
O464        O  0.11697010  0.45260093  0.74550057    -1.11200
O465        O  0.15221178  0.52794251  0.81307595    -0.73700
O466        O  0.08084935  0.48930804  0.80984213    -0.77100
O467        O  0.06348901  0.37802120  0.67785230    -0.77800
C468        C  0.11538038  0.51774533  0.82968268     0.97400
O469        O  0.09824861  0.51462439  0.70039335    -0.75800
O470        O  0.18699377  0.47276792  0.81544907    -0.81000
C471        C  0.19170150  0.45382925  0.67520701     1.00100
C472        C  0.17955800  0.43529493  0.81957172     1.06000
O473        O  0.15581990  0.41916181  0.67923178    -0.76600
C474        C  0.13637127  0.54010116  0.68483118     1.04300
Fe475      Fe  0.54099436  0.92851464  0.50988656     1.65800
Fe476      Fe  0.50168527  0.82264889  0.01132709     1.73200
Fe477      Fe  0.60949446  0.89098336  0.99514571     1.54400
O478        O  0.62614631  0.93703457  0.93812483    -0.80400
O479        O  0.50176838  0.79291475  0.55529811    -0.78700
O480        O  0.56752480  0.94017879  0.92605133    -0.82900
O481        O  0.58750132  0.95398307  0.56529240    -0.77700
O482        O  0.59082376  0.84545105  0.93813317    -0.79500
O483        O  0.45624077  0.83619032  0.55613390    -0.82200
C484        C  0.61635127  0.94787728  0.58141660     0.98500
C485        C  0.60377249  0.94755301  0.91201561     1.06000
O486        O  0.55097321  0.87959301  0.00127950    -1.11200
O487        O  0.46854024  0.82739267  0.95004850    -0.73700
O488        O  0.48215964  0.89224637  0.96226618    -0.77100
O489        O  0.62241237  0.91986233  0.56275872    -0.77800
C490        C  0.46223403  0.85701218  0.93946477     0.97400
O491        O  0.49520767  0.90603706  0.56748395    -0.75800
O492        O  0.52422551  0.79650080  0.96214161    -0.81000
C493        C  0.53653725  0.79930430  0.57441305     1.00100
C494        C  0.55663471  0.80906585  0.93399571     1.06000
O495        O  0.57331886  0.82872450  0.55960512    -0.76600
C496        C  0.46391074  0.86941674  0.57914225     1.04300
Fe497      Fe  0.92156386  0.38140104  0.49672891     1.65800
Fe498      Fe  0.82973509  0.32707691  0.99910524     1.73200
Fe499      Fe  0.88935604  0.28102975  0.99950951     1.54400
O500        O  0.93860610  0.30932813  0.94177433    -0.80400
O501        O  0.80243602  0.26632656  0.55450769    -0.78700
O502        O  0.95440894  0.37619674  0.93397636    -0.82900
O503        O  0.96120816  0.36945664  0.54025746    -0.77700
O504        O  0.84726612  0.25359708  0.94023606    -0.79500
O505        O  0.82775540  0.35355588  0.55417658    -0.82200
C506        C  0.95990757  0.33752712  0.56001589     0.98500
C507        C  0.95448677  0.34443708  0.91684697     1.06000
O508        O  0.88498896  0.33120990  0.00059373    -1.11200
O509        O  0.84726998  0.36761380  0.93851159    -0.73700
O510        O  0.91172783  0.41777234  0.96457898    -0.77100
O511        O  0.93186466  0.30005657  0.54819853    -0.77800
C512        C  0.87961695  0.40477600  0.93571857     0.97400
O513        O  0.89881651  0.39129706  0.56305776    -0.75800
O514        O  0.80205332  0.27642154  0.94612723    -0.81000
C515        C  0.81353044  0.24023834  0.56568372     1.00100
C516        C  0.81379862  0.25267173  0.92616060     1.06000
O517        O  0.84276819  0.23842692  0.54195506    -0.76600
C518        C  0.86158783  0.38089495  0.57765986     1.04300
Fe519      Fe  0.60570412  0.05364937  0.73945269     1.65800
Fe520      Fe  0.65655376  0.16124188  0.74401738     1.73200
Fe521      Fe  0.71524096  0.11312080  0.74909793     1.54400
O522        O  0.69489075  0.06859171  0.80697501    -0.80400
O523        O  0.70731715  0.19210882  0.69475031    -0.78700
O524        O  0.62487612  0.02667618  0.79283410    -0.82900
O525        O  0.62801086  0.03337723  0.68214587    -0.77700
O526        O  0.73896892  0.16060727  0.80574569    -0.79500
O527        O  0.61671890  0.14324967  0.68106048    -0.82200
C528        C  0.66424548  0.03978027  0.66979350     0.98500
C529        C  0.65879244  0.03576455  0.81660839     1.06000
O530        O  0.65930798  0.10938566  0.74421475    -1.11200
O531        O  0.60556727  0.13683036  0.79407067    -0.73700
O532        O  0.57694479  0.06707823  0.79712604    -0.77100
O533        O  0.69892211  0.06684613  0.69222456    -0.77800
C534        C  0.57942158  0.10056466  0.81255096     0.97400
O535        O  0.57948921  0.07291698  0.68431869    -0.75800
O536        O  0.69601360  0.18634560  0.80628575    -0.81000
C537        C  0.73602815  0.18652472  0.67677630     1.00100
C538        C  0.72744075  0.18506641  0.82396024     1.06000
O539        O  0.74199715  0.15756662  0.69187189    -0.76600
C540        C  0.58756775  0.10748364  0.66448465     1.04300
Fe541      Fe  0.90632416  0.51140369  0.74216197     1.65800
Fe542      Fe  0.80215939  0.47979281  0.75415726     1.73200
Fe543      Fe  0.87874414  0.58621000  0.73985943     1.54400
O544        O  0.92795379  0.60761265  0.79511533    -0.80400
O545        O  0.78115802  0.50386833  0.70021766    -0.78700
O546        O  0.95058479  0.56346733  0.78154882    -0.82900
O547        O  0.92770816  0.54190842  0.67447773    -0.77700
O548        O  0.83777013  0.58168199  0.79745575    -0.79500
O549        O  0.80417004  0.44213199  0.69603596    -0.82200
C550        C  0.93477891  0.57704405  0.65812893     0.98500
C551        C  0.95457938  0.59588183  0.80254790     1.06000
O552        O  0.86225240  0.52599563  0.74576302    -1.11200
O553        O  0.81628579  0.44920431  0.80944355    -0.73700
O554        O  0.88730859  0.47900092  0.80955952    -0.77100
O555        O  0.92201457  0.59878322  0.68075037    -0.77800
C556        C  0.85043412  0.45367354  0.82786559     0.97400
O557        O  0.87084264  0.45705825  0.70115625    -0.75800
O558        O  0.79241244  0.51265319  0.81112698    -0.81000
C559        C  0.79506235  0.53778729  0.67546551     1.00100
C560        C  0.80661966  0.55144703  0.82131960     1.06000
O561        O  0.83122689  0.57138601  0.68442828    -0.76600
C562        C  0.83375707  0.43619019  0.68210627     1.04300
Fe563      Fe  0.45740930  0.06376729  0.49018844     1.65800
Fe564      Fe  0.50699392  0.17449880  0.00094343     1.73200
Fe565      Fe  0.39666685  0.11389282  0.00553437     1.54400
O566        O  0.36897929  0.06898796  0.94799194    -0.80400
O567        O  0.47152760  0.18825449  0.54598752    -0.78700
O568        O  0.40922506  0.04053657  0.94071891    -0.82900
O569        O  0.41801037  0.03034484  0.54925622    -0.77700
O570        O  0.41328089  0.15943449  0.94939827    -0.79500
O571        O  0.53196137  0.16179558  0.53597628    -0.82200
C572        C  0.38804039  0.02833570  0.57513465     0.98500
C573        C  0.37829112  0.04418449  0.92676662     1.06000
O574        O  0.45297950  0.11833527  0.00103284    -1.11200
O575        O  0.53283025  0.16020773  0.94054997    -0.73700
O576        O  0.50011758  0.09003310  0.93830472    -0.77100
O577        O  0.37231331  0.05098712  0.56576126    -0.77800
C578        C  0.52729722  0.12647907  0.92128816     0.97400
O579        O  0.50590524  0.09255164  0.54206092    -0.75800
O580        O  0.48467484  0.19922017  0.94936484    -0.81000
C581        C  0.43768676  0.17591713  0.57159098     1.00100
C582        C  0.44856872  0.19003902  0.93249666     1.04800
O583        O  0.40269960  0.14119246  0.56253582    -0.76600
C584        C  0.53208344  0.13040965  0.55547642     1.04300
Fe585      Fe  0.58759861  0.51442673  0.50233259     1.65800
Fe586      Fe  0.65867496  0.47741171  0.00694838     1.73200
Fe587      Fe  0.69567389  0.58429409  0.99502749     1.54400
O588        O  0.66949567  0.59947596  0.93433502    -0.80400
O589        O  0.71117030  0.52057097  0.55382054    -0.78700
O590        O  0.59975767  0.55269242  0.94115218    -0.82900
O591        O  0.59749552  0.54953246  0.56528421    -0.77700
O592        O  0.72908029  0.56958380  0.94066351    -0.79500
O593        O  0.62250732  0.45375016  0.55978293    -0.82200
C594        C  0.62701298  0.58562940  0.57996818     0.98500
C595        C  0.63111575  0.58389841  0.91977960     1.06000
O596        O  0.64786881  0.52393936  0.99919001    -1.11200
O597        O  0.61136163  0.43730886  0.95493825    -0.73700
O598        O  0.57386175  0.46722581  0.93702291    -0.77100
O599        O  0.66278048  0.60772602  0.55715450    -0.77800
C600        C  0.58352834  0.43962193  0.92862484     0.97400
O601        O  0.56847865  0.46364487  0.54975391    -0.75800
O602        O  0.70018169  0.49959814  0.94796946    -0.81000
C603        C  0.73343888  0.55794674  0.57159714     1.00100
C604        C  0.72547233  0.53468078  0.92688950     1.06000
O605        O  0.72944498  0.58809434  0.55617535    -0.76600
C606        C  0.58529752  0.44536525  0.57125322     1.04300
Fe607      Fe  0.43333614  0.36727964  0.74796714     1.65800
Fe608      Fe  0.47652670  0.30730363  0.74737521     1.73200
Fe609      Fe  0.36772406  0.26161975  0.75373994     1.54400
O610        O  0.34838902  0.29141214  0.80670534    -0.80400
O611        O  0.45141293  0.26345165  0.68867845    -0.78700
O612        O  0.40594646  0.35637796  0.81769439    -0.82900
O613        O  0.37527646  0.34724483  0.71329653    -0.77700
O614        O  0.38295758  0.23784409  0.81466748    -0.79500
O615        O  0.50678462  0.35599902  0.69244171    -0.82200
C616        C  0.35062839  0.31557837  0.68587485     0.98500
C617        C  0.37001840  0.32575234  0.83211473     1.06000
O618        O  0.42585144  0.31152335  0.74935607    -1.11200
O619        O  0.50564501  0.34957285  0.80752093    -0.73700
O620        O  0.49234508  0.39857153  0.78313637    -0.77100
O621        O  0.34745432  0.28031590  0.69168978    -0.77800
C622        C  0.51144724  0.38624767  0.81164642     0.97400
O623        O  0.46226087  0.37924124  0.67838755    -0.75800
O624        O  0.45169696  0.25934461  0.80156240    -0.81000
C625        C  0.41383062  0.23219312  0.67943556     1.00100
C626        C  0.41651898  0.23785840  0.82581287     1.06000
O627        O  0.38083772  0.22642235  0.70305721    -0.76600
C628        C  0.49506794  0.37768692  0.66694119     1.04300
Fe629      Fe  0.06338518  0.60880453  0.49427942     1.65800
Fe630      Fe  0.16078781  0.66887146  0.00325612     1.73200
Fe631      Fe  0.09156330  0.70476544  0.00630396     1.54400
O632        O  0.04307006  0.67993119  0.94918701    -0.80400
O633        O  0.18095931  0.72185421  0.56865770    -0.78700
O634        O  0.04068863  0.62247882  0.91946180    -0.82900
O635        O  0.01977109  0.61616632  0.53517726    -0.77700
O636        O  0.13632928  0.74044107  0.95078309    -0.79500
O637        O  0.15167125  0.63236215  0.56292249    -0.82200
C638        C  0.02051721  0.64521599  0.56137813     0.98500
C639        C  0.02998615  0.64993329  0.91667921     1.06000
O640        O  0.10298423  0.65888163  0.99787143    -1.11200
O641        O  0.15733465  0.63813381  0.93731442    -0.73700
O642        O  0.09050753  0.58400453  0.94068310    -0.77100
O643        O  0.04964263  0.68372553  0.55660420    -0.77800
C644        C  0.12817629  0.60198690  0.92289093     0.97400
O645        O  0.08008915  0.59247665  0.56072200    -0.75800
O646        O  0.18645800  0.72361657  0.95924109    -0.81000
C647        C  0.16972198  0.74764351  0.58083190     1.00100
C648        C  0.17219944  0.74508495  0.93885516     1.06000
O649        O  0.13955487  0.74870371  0.55795459    -0.76600
C650        C  0.11573403  0.60213205  0.58023808     1.04300
Fe651      Fe  0.38438067  0.93773413  0.76727707     1.65800
Fe652      Fe  0.33143474  0.83049961  0.75885666     1.73200
Fe653      Fe  0.27417106  0.88049107  0.76214467     1.54400
O654        O  0.29140288  0.92324262  0.82181072    -0.80400
O655        O  0.28497367  0.80448544  0.70265354    -0.78700
O656        O  0.36262353  0.96151650  0.82117858    -0.82900
O657        O  0.36655186  0.96224888  0.71029763    -0.77700
O658        O  0.24764305  0.83278378  0.81710349    -0.79500
O659        O  0.37723694  0.85353017  0.70138133    -0.82200
C660        C  0.33230643  0.95630581  0.69045861     0.98500
C661        C  0.32693002  0.95300550  0.83883307     1.06000
O662        O  0.32981578  0.88281595  0.76270319    -1.11200
O663        O  0.37796060  0.84887007  0.81539993    -0.73700
O664        O  0.40760310  0.91832407  0.82540070    -0.77100
O665        O  0.29521333  0.92834318  0.70666121    -0.77800
C666        C  0.40342574  0.88341824  0.83807491     0.97400
O667        O  0.41512085  0.92320353  0.71296751    -0.75800
O668        O  0.28616095  0.80198351  0.81559247    -0.81000
C669        C  0.25524946  0.80911823  0.68560327     1.00100
C670        C  0.25632005  0.80584232  0.83375420     1.06000
O671        O  0.24784414  0.83647943  0.70326427    -0.76600
C672        C  0.40830684  0.89029720  0.69003286     1.04300
C673        C  0.19785157  0.77631752  0.89857254    -0.15100
C674        C  0.23128545  0.77713119  0.87620635    -0.30300
H675        H  0.18773746  0.79745940  0.88532035     0.13900
H676        H  0.24047609  0.75512875  0.88888817     0.14500
C677        C  0.19368053  0.77798528  0.62299210    -0.15100
C678        C  0.22888576  0.78057878  0.64353460    -0.30300
H679        H  0.18297470  0.79853986  0.63652060     0.13900
H680        H  0.23916053  0.75986903  0.62918686     0.14500
C681        C  0.56091215  0.40872565  0.88692889    -0.15100
C682        C  0.53975057  0.41651771  0.85097169    -0.30300
H683        H  0.56094845  0.37950504  0.88627666     0.13900
H684        H  0.54131285  0.44656604  0.85172527     0.14500
C685        C  0.56050844  0.41387730  0.61176913    -0.15100
C686        C  0.52032614  0.40372142  0.62308164    -0.30300
H687        H  0.57577648  0.40053297  0.63368838     0.13900
H688        H  0.50579431  0.41778517  0.60105842     0.14500
C689        C  0.35500317  0.02061102  0.88117051    -0.15100
C690        C  0.32817915  0.97847197  0.88240250    -0.30300
H691        H  0.36907796  0.03585426  0.84504027     0.13900
H692        H  0.31424148  0.96241033  0.91815335     0.14500
C693        C  0.33761237  0.98313611  0.64567711    -0.15100
C694        C  0.37435540  0.99949698  0.61899714    -0.30300
H695        H  0.31253409  0.98882678  0.63448297     0.13900
H696        H  0.39709067  0.99027281  0.62939804     0.14500
C697        C  0.40779170  0.20090099  0.63959065    -0.15100
C698        C  0.44107580  0.20461609  0.61320491    -0.30300
H699        H  0.37557893  0.17474087  0.63160492     0.13900
H700        H  0.47302430  0.23130461  0.62118021     0.14500
C701        C  0.41391188  0.21135820  0.86890581    -0.15100
C702        C  0.44929735  0.21645851  0.89052837    -0.30300
H703        H  0.38249759  0.18787923  0.88361414     0.13900
H704        H  0.48057808  0.24093018  0.87646006     0.14500
C705        C  0.99218859  0.61772556  0.83701765    -0.15100
C706        C  0.99883356  0.64417701  0.87584020    -0.30300
H707        H  0.01399557  0.60631315  0.83360598     0.13900
H708        H  0.97850806  0.65708714  0.88073897     0.14500
C709        C  0.98731640  0.63316171  0.60066327    -0.15100
C710        C  0.95984238  0.59215558  0.61116830    -0.30300
H711        H  0.98869781  0.65756873  0.62484129     0.13900
H712        H  0.96022610  0.56805275  0.58814072     0.14500
C713        C  0.76676921  0.53463114  0.63354477    -0.15100
C714        C  0.76551429  0.56671483  0.61198980    -0.30300
H715        H  0.74343029  0.50252021  0.62157221     0.13900
H716        H  0.78710879  0.59896851  0.62478291     0.14500
C717        C  0.78560378  0.56195312  0.86236875    -0.15100
C718        C  0.74954486  0.53103831  0.88411035    -0.30300
H719        H  0.79944190  0.59455886  0.87438673     0.13900
H720        H  0.73690355  0.49878520  0.87116550     0.14500
C721        C  0.55417766  0.13044065  0.87746592    -0.15100
C722        C  0.55084173  0.09658976  0.85437231    -0.30300
H723        H  0.57790090  0.16214152  0.86452575     0.13900
H724        H  0.52742545  0.06490262  0.86766428     0.14500
C725        C  0.56095176  0.10439062  0.62057170    -0.15100
C726        C  0.56305084  0.13759420  0.59655106    -0.30300
H727        H  0.53729222  0.07245054  0.60847839     0.13900
H728        H  0.58611356  0.16971469  0.60852640     0.14500
C729        C  0.75099443  0.21442474  0.86706196    -0.15100
C730        C  0.78877423  0.22202227  0.88471955    -0.30300
H731        H  0.73742412  0.23169405  0.88339019     0.13900
H732        H  0.80239660  0.20493796  0.86798102     0.14500
C733        C  0.79083993  0.21090714  0.60829404    -0.15100
C734        C  0.76259886  0.21535093  0.63604731    -0.30300
H735        H  0.79668651  0.18569080  0.61642579     0.13900
H736        H  0.75721189  0.24083568  0.62748495     0.14500
C737        C  0.88138416  0.43413913  0.89712150    -0.15100
C738        C  0.84670602  0.42695092  0.87119366    -0.30300
H739        H  0.91252478  0.46209273  0.88901434     0.13900
H740        H  0.81523598  0.40004061  0.88068585     0.14500
C741        C  0.86001711  0.40296976  0.62377951    -0.15100
C742        C  0.82662792  0.40565893  0.64053090    -0.30300
H743        H  0.89064577  0.42128827  0.64325327     0.13900
H744        H  0.79583486  0.38850051  0.62128244     0.14500
C745        C  0.61890490  0.96927761  0.86320066    -0.15100
C746        C  0.65491148  0.00746688  0.85867432    -0.30300
H747        H  0.59482731  0.95813087  0.83333285     0.13900
H748        H  0.67876590  0.01974165  0.88881916     0.14500
C749        C  0.66458495  0.01534419  0.62556735    -0.15100
C750        C  0.64103423  0.97266535  0.62644654    -0.30300
H751        H  0.67392873  0.03165169  0.58919871     0.13900
H752        H  0.63100708  0.95653886  0.66290421     0.14500
C753        C  0.43017733  0.88464703  0.88098439    -0.15100
C754        C  0.43154472  0.85121023  0.89860719    -0.30300
H755        H  0.45085407  0.91552926  0.89811315     0.13900
H756        H  0.41187545  0.82027732  0.88125638     0.14500
C757        C  0.43436516  0.86390608  0.62099937    -0.15100
C758        C  0.43833193  0.89620017  0.64854595    -0.30300
H759        H  0.40820680  0.83190315  0.62920388     0.13900
H760        H  0.46441560  0.92823818  0.64038123     0.14500
C761        C  0.11056618  0.53946985  0.87313291    -0.15100
C762        C  0.13851376  0.58012645  0.88411648    -0.30300
H763        H  0.08015153  0.52249873  0.89322430     0.13900
H764        H  0.16862474  0.59773687  0.86356052     0.14500
C765        C  0.14462482  0.57267043  0.64522834    -0.15100
C766        C  0.11248154  0.57523452  0.62436340    -0.30300
H767        H  0.17706633  0.59312332  0.63127115     0.13900
H768        H  0.08020742  0.55378434  0.63836955     0.14500
C769        C  0.00676746  0.34983235  0.85077960    -0.15100
C770        C  0.97182431  0.35062858  0.86422317    -0.30300
H771        H  0.01889673  0.33546892  0.87634215     0.13900
H772        H  0.96148133  0.36662818  0.83868069     0.14500
C773        C  0.02546393  0.38310071  0.60719069    -0.15100
C774        C  0.99117926  0.34441953  0.59999172    -0.30300
H775        H  0.03178012  0.40826472  0.58068385     0.13900
H776        H  0.98354236  0.31917904  0.62693953     0.14500
C777        C  0.35493687  0.33176705  0.88109650    -0.15100
C778        C  0.32221261  0.33807941  0.88477234    -0.30300
H779        H  0.37801109  0.34221194  0.91203698     0.13900
H780        H  0.29941260  0.32903404  0.85373674     0.14500
C781        C  0.32926915  0.35833905  0.64004251    -0.15100
C782        C  0.32747501  0.32148213  0.64403302    -0.30300
H783        H  0.34227145  0.38081793  0.67127995     0.13900
H784        H  0.31611187  0.29942057  0.61235152     0.14500
C785        C  0.20123484  0.42522382  0.85982489    -0.15100
C786        C  0.23430174  0.45578424  0.88624628    -0.30300
H787        H  0.19054295  0.39225903  0.86687010     0.13900
H788        H  0.24526454  0.48865264  0.87787527     0.14500
C789        C  0.22218463  0.45863388  0.63517267    -0.15100
C790        C  0.21789904  0.42555273  0.60910833    -0.30300
H791        H  0.24972998  0.49016735  0.62820057     0.13900
H792        H  0.19129606  0.39381247  0.61761062     0.14500
C793        C  0.63536882  0.63961724  0.86188179    -0.15100
C794        C  0.62001794  0.59901826  0.87440872    -0.30300
H795        H  0.66213139  0.66523321  0.88246951     0.13900
H796        H  0.59276966  0.57411807  0.85355213     0.14500
C797        C  0.61742149  0.60049504  0.62626451    -0.15100
C798        C  0.62928810  0.64072162  0.63502881    -0.30300
H799        H  0.59449221  0.57561970  0.65143324     0.13900
H800        H  0.65162976  0.66600781  0.60993283     0.14500
C801        C  0.43317190  0.54973489  0.61499411    -0.15100
C802        C  0.42933332  0.57771763  0.64340262    -0.30300
H803        H  0.46050173  0.54638365  0.62184076     0.13900
H804        H  0.40295534  0.58256882  0.63691386     0.14500
C805        C  0.43793293  0.57697362  0.87462152    -0.15100
C806        C  0.43279300  0.53965394  0.88915298    -0.30300
H807        H  0.42039707  0.58909917  0.89386827     0.13900
H808        H  0.45082160  0.52802484  0.86997443     0.14500
C809        C  0.53307103  0.77096989  0.61604619    -0.15100
C810        C  0.56730395  0.77351194  0.63864290    -0.30300
H811        H  0.50100902  0.74722675  0.62860938     0.13900
H812        H  0.59941862  0.79673160  0.62572377     0.14500
C813        C  0.55129653  0.77902069  0.89423704    -0.15100
C814        C  0.58308567  0.78086436  0.86735184    -0.30300
H815        H  0.51859498  0.75304490  0.88750636     0.13900
H816        H  0.61619597  0.80528603  0.87508529     0.14500
loop_ 
_geom_bond_atom_site_label_1 
_geom_bond_atom_site_label_2 
_geom_bond_distance 
_geom_bond_site_symmetry_2 
_ccdc_geom_bond_type 
Fe1          O17   2.033       .  S
Fe1           O7   2.066       .  S
Fe1          O14   2.081       .  S
Fe1           O6   2.019       .  S
Fe1          O12   1.966       .  S
Fe2           O5   2.027       .  S
Fe2           O9   2.082       .  S
Fe2          O13   2.049       .  S
Fe2          O18   2.063       .  S
Fe2          O12   1.976       .  S
Fe3          O21   2.106       .  S
Fe3           O8   2.088       .  S
Fe3          O15   2.106       .  S
Fe3           O4   2.111       .  S
Fe3          O12   1.992       .  S
O4           C11   1.277       .  A
O5           C19   1.262       .  A
O6           C11   1.266       .  A
O7           C10   1.269       .  A
O8           C20   1.272       .  A
O9           C22   1.271       .  A
C10          O15   1.273       .  A
C10         C390   1.507       .  S
C11         C385   1.485       .  S
O13          C16   1.262       .  A
O14          C16   1.270       .  A
C16         C397   1.478       .  S
O17          C22   1.265       .  A
O18          C20   1.270       .  A
C19          O21   1.278       .  A
C19         C402   1.472       .  S
C20         C406   1.490       .  S
C22         C394   1.473       .  S
Fe23         O39   2.062       .  S
Fe23         O29   2.056       .  S
Fe23        O444   2.068   1_554  S
Fe23        O436   2.059   1_554  S
Fe23        O442   1.972       .  S
Fe24         O35   2.103       .  S
Fe24         O40   2.085       .  S
Fe24        O435   2.078       .  S
Fe24        O439   2.099       .  S
Fe24         O34   1.967       .  S
Fe25         O30   2.071       .  S
Fe25         O26   2.079       .  S
Fe25        O451   2.064       .  S
Fe25        O445   2.092       .  S
Fe25         O34   1.977       .  S
O26          C33   1.267       .  A
O27        Fe432   2.072       .  S
O27          C41   1.271       .  A
O28        Fe431   2.045       .  S
O28          C33   1.260       .  A
O29          C32   1.269       .  A
O30          C42   1.269       .  A
O31        Fe432   2.045       .  S
O31          C44   1.262       .  A
C32          O37   1.277       .  A
C32         C373   1.478       .  S
C33         C370   1.470       .  S
O34        Fe431   1.956       .  S
O35          C38   1.282       .  A
O36        Fe431   2.050       .  S
O36          C38   1.271       .  A
O37        Fe433   2.107   1_554  S
C38         C398   1.477       .  S
O39          C44   1.265       .  A
O40          C42   1.275       .  A
C41          O43   1.265       .  A
C41         C382   1.474       .  S
C42         C378   1.488       .  S
O43        Fe433   2.053   1_554  S
C44         C393   1.467       .  S
Fe45         O61   2.068       .  S
Fe45         O51   2.037       .  S
Fe45         O58   2.049       .  S
Fe45         O50   2.063       .  S
Fe45         O56   1.969       .  S
Fe46         O49   2.068       .  S
Fe46         O53   2.061       .  S
Fe46         O57   2.087       .  S
Fe46         O62   2.052       .  S
Fe46         O56   1.981       .  S
Fe47         O65   2.063       .  S
Fe47         O52   2.104       .  S
Fe47         O59   2.114       .  S
Fe47         O48   2.085       .  S
Fe47         O56   1.985       .  S
O48          C55   1.271       .  A
O49          C63   1.269       .  A
O50          C55   1.271       .  A
O51          C54   1.262       .  A
O52          C64   1.277       .  A
O53          C66   1.265       .  A
C54          O59   1.276       .  A
C54         C365   1.477       .  S
C55         C361   1.491       .  S
O57          C60   1.273       .  A
O58          C60   1.266       .  A
C60         C353   1.475       .  S
O61          C66   1.269       .  A
O62          C64   1.266       .  A
C63          O65   1.271       .  A
C63         C381   1.476       .  S
C64         C377   1.485       .  S
C66         C357   1.480       .  S
Fe67         O83   2.047   1_556  S
Fe67         O73   2.059   1_556  S
Fe67        O488   2.062       .  S
Fe67        O480   2.028       .  S
Fe67        O486   1.942   1_556  S
Fe68         O79   2.074       .  S
Fe68         O84   2.051       .  S
Fe68        O479   2.067       .  S
Fe68        O483   2.062       .  S
Fe68         O78   1.978       .  S
Fe69         O74   2.091       .  S
Fe69         O70   2.066       .  S
Fe69        O495   2.069       .  S
Fe69        O489   2.097       .  S
Fe69         O78   1.989       .  S
O70          C77   1.269       .  A
O71        Fe476   2.065       .  S
O71          C85   1.275       .  A
O72        Fe475   2.065       .  S
O72          C77   1.271       .  A
O73          C76   1.265       .  A
O74          C86   1.270       .  A
O75        Fe476   2.075       .  S
O75          C88   1.272       .  A
C76          O81   1.271       .  A
C76         C342   1.478   1_565  S
C77         C337   1.467       .  S
O78        Fe475   1.984       .  S
O79          C82   1.269       .  A
O80        Fe475   2.063       .  S
O80          C82   1.267       .  A
O81        Fe477   2.095   1_554  S
C82         C346   1.479       .  S
O83          C88   1.268       .  A
O84          C86   1.264       .  A
C85          O87   1.270       .  A
C85         C401   1.482       .  S
C86         C405   1.481       .  S
O87        Fe477   2.076   1_554  S
C88         C349   1.462       .  S
Fe89        O105   2.034       .  S
Fe89         O95   2.076       .  S
Fe89        O510   2.064   1_554  S
Fe89        O502   2.023   1_554  S
Fe89        O508   1.957       .  S
Fe90        O101   2.049       .  S
Fe90        O106   2.084       .  S
Fe90        O501   2.027       .  S
Fe90        O505   2.112       .  S
Fe90        O100   1.970       .  S
Fe91         O96   2.034       .  S
Fe91         O92   2.116       .  S
Fe91        O517   2.093       .  S
Fe91        O511   2.046       .  S
Fe91        O100   1.984       .  S
O92          C99   1.277       .  A
O93        Fe498   2.036   1_554  S
O93         C107   1.265       .  A
O94        Fe497   2.033       .  S
O94          C99   1.264       .  A
O95          C98   1.266       .  A
O96         C108   1.262       .  A
O97        Fe498   2.131   1_554  S
O97         C110   1.286       .  A
C98         O103   1.265       .  A
C98         C366   1.490       .  S
C99         C362   1.473       .  S
O100       Fe497   1.949       .  S
O101        C104   1.263       .  A
O102       Fe497   2.076       .  S
O102        C104   1.270       .  A
O103       Fe499   2.077   1_554  S
C104        C329   1.476       .  S
O105        C110   1.268       .  A
O106        C108   1.275       .  A
C107        O109   1.287       .  A
C107        C325   1.493       .  S
C108        C322   1.469       .  S
O109       Fe499   2.144   1_554  S
C110        C333   1.480       .  S
Fe111       O127   2.056       .  S
Fe111       O117   2.039       .  S
Fe111       O124   2.057       .  S
Fe111       O116   2.071       .  S
Fe111       O122   1.958       .  S
Fe112       O115   2.124       .  S
Fe112       O119   2.042       .  S
Fe112       O123   2.125       .  S
Fe112       O128   2.033       .  S
Fe112       O122   1.959       .  S
Fe113       O131   2.060       .  S
Fe113       O118   2.085       .  S
Fe113       O125   2.115       .  S
Fe113       O114   2.059       .  S
Fe113       O122   1.965       .  S
O114        C121   1.264       .  A
O115        C129   1.284       .  A
O116        C121   1.268       .  A
O117        C120   1.267       .  A
O118        C130   1.274       .  A
O119        C132   1.266       .  A
C120        O125   1.276       .  A
C120        C341   1.482   1_545  S
C121        C338   1.466       .  S
O123        C126   1.281       .  A
O124        C126   1.271       .  A
C126        C314   1.492       .  S
O127        C132   1.264       .  A
O128        C130   1.261       .  A
C129        O131   1.268       .  A
C129        C326   1.498       .  S
C130        C321   1.469       .  S
C132        C317   1.461       .  S
Fe133       O149   2.089       .  S
Fe133       O139   2.030       .  S
Fe133       O146   2.046       .  S
Fe133       O138   2.082       .  S
Fe133       O144   1.957       .  S
Fe134       O137   2.064       .  S
Fe134       O141   2.057       .  S
Fe134       O145   2.083       .  S
Fe134       O150   2.041       .  S
Fe134       O144   1.964       .  S
Fe135       O153   2.083       .  S
Fe135       O140   2.096       .  S
Fe135       O147   2.108       .  S
Fe135       O136   2.080       .  S
Fe135       O144   1.982       .  S
O136        C143   1.272       .  A
O137        C151   1.271       .  A
O138        C143   1.275       .  A
O139        C142   1.265       .  A
O140        C152   1.273       .  A
O141        C154   1.264       .  A
C142        O147   1.273       .  A
C142        C302   1.484       .  S
C143        C297   1.490       .  S
O145        C148   1.273       .  A
O146        C148   1.264       .  A
C148        C330   1.474       .  S
O149        C154   1.273       .  A
O150        C152   1.264       .  A
C151        O153   1.276       .  A
C151        C305   1.476       .  S
C152        C309   1.474       .  S
C154        C334   1.485       .  S
Fe155       O171   2.056   1_556  S
Fe155       O161   2.056   1_556  S
Fe155       O576   2.063       .  S
Fe155       O568   2.046       .  S
Fe155       O574   1.974   1_556  S
Fe156       O167   2.097       .  S
Fe156       O172   2.076       .  S
Fe156       O567   2.061       .  S
Fe156       O571   2.096       .  S
Fe156       O166   1.976       .  S
Fe157       O162   2.070       .  S
Fe157       O158   2.095       .  S
Fe157       O583   2.100       .  S
Fe157       O577   2.085       .  S
Fe157       O166   2.005       .  S
O158        C165   1.273       .  A
O159       Fe564   2.056       .  S
O159        C173   1.266       .  A
O160       Fe563   2.022       .  S
O160        C165   1.267       .  A
O161        C164   1.270       .  A
O162        C174   1.268       .  A
O163       Fe564   2.040       .  S
O163        C176   1.262       .  A
C164        O169   1.273       .  A
C164        C286   1.492       .  S
C165        C281   1.473   1_545  S
O166       Fe563   1.967       .  S
O167        C170   1.271       .  A
O168       Fe563   2.065       .  S
O168        C170   1.266       .  A
O169       Fe565   2.095       .  S
C170        C313   1.500       .  S
O171        C176   1.268       .  A
O172        C174   1.276       .  A
C173        O175   1.271       .  A
C173        C290   1.474       .  S
C174        C294   1.487       .  S
O175       Fe565   2.071       .  S
C176        C318   1.461       .  S
Fe177       O193   2.043   1_556  S
Fe177       O183   2.044   1_556  S
Fe177       O598   2.051       .  S
Fe177       O590   2.023       .  S
Fe177       O596   1.959       .  S
Fe178       O189   2.101       .  S
Fe178       O194   2.055       .  S
Fe178       O589   2.070       .  S
Fe178       O593   2.082       .  S
Fe178       O188   1.969       .  S
Fe179       O184   2.084       .  S
Fe179       O180   2.081       .  S
Fe179       O605   2.073       .  S
Fe179       O599   2.092       .  S
Fe179       O188   1.996       .  S
O180        C187   1.267       .  A
O181       Fe586   2.065       .  S
O181        C195   1.270       .  A
O182       Fe585   2.041       .  S
O182        C187   1.263       .  A
O183        C186   1.268       .  A
O184        C196   1.272       .  A
O185       Fe586   2.047       .  S
O185        C198   1.262       .  A
C186        O191   1.285       .  A
C186        C389   1.491       .  S
C187        C386   1.470       .  S
O188       Fe585   1.961       .  S
O189        C192   1.276       .  A
O190       Fe585   2.039       .  S
O190        C192   1.268       .  A
O191       Fe587   2.142   1_554  S
C192        C273   1.484       .  S
O193        C198   1.264       .  A
O194        C196   1.271       .  A
C195        O197   1.267       .  A
C195        C306   1.483       .  S
C196        C310   1.484       .  S
O197       Fe587   2.070   1_554  S
C198        C277   1.462       .  S
Fe199       O215   2.051       .  S
Fe199       O205   2.052       .  S
Fe199       O212   2.058       .  S
Fe199       O204   2.037       .  S
Fe199       O210   1.974       .  S
Fe200       O203   2.062       .  S
Fe200       O207   2.042       .  S
Fe200       O211   2.073       .  S
Fe200       O216   2.030       .  S
Fe200       O210   1.980       .  S
Fe201       O219   2.061       .  S
Fe201       O206   2.111       .  S
Fe201       O213   2.103       .  S
Fe201       O202   2.088       .  S
Fe201       O210   1.990       .  S
O202        C209   1.269       .  A
O203        C217   1.269       .  A
O204        C209   1.265       .  A
O205        C208   1.267       .  A
O206        C218   1.279       .  A
O207        C220   1.265       .  A
C208        O213   1.275       .  A
C208        C374   1.488       .  S
C209        C369   1.471       .  S
O211        C214   1.268       .  A
O212        C214   1.267       .  A
C214        C274   1.475       .  S
O215        C220   1.264       .  A
O216        C218   1.263       .  A
C217        O219   1.266       .  A
C217        C289   1.475       .  S
C218        C293   1.476       .  S
C220        C278   1.460       .  S
Fe221       O237   2.049   1_556  S
Fe221       O227   2.055   1_556  S
Fe221       O642   2.068       .  S
Fe221       O634   2.044       .  S
Fe221       O640   1.942       .  S
Fe222       O233   2.066       .  S
Fe222       O238   2.111       .  S
Fe222       O633   2.047       .  S
Fe222       O637   2.139       .  S
Fe222       O232   1.968       .  S
Fe223       O228   2.049       .  S
Fe223       O224   2.126       .  S
Fe223       O649   2.109       .  S
Fe223       O643   2.057       .  S
Fe223       O232   1.982       .  S
O224        C231   1.280       .  A
O225       Fe630   2.017       .  S
O225        C239   1.257       .  A
O226       Fe629   2.032       .  S
O226        C231   1.263       .  A
O227        C230   1.265       .  A
O228        C240   1.266       .  A
O229       Fe630   2.098       .  S
O229        C242   1.278       .  A
C230        O235   1.272       .  A
C230        C301   1.473   1_455  S
C231        C298   1.476       .  S
O232       Fe629   1.956       .  S
O233        C236   1.264       .  A
O234       Fe629   2.061       .  S
O234        C236   1.266       .  A
O235       Fe631   2.088       .  S
C236        C354   1.482       .  S
O237        C242   1.269       .  A
O238        C240   1.283       .  A
C239        O241   1.279       .  A
C239        C269   1.474       .  S
C240        C265   1.487       .  S
O241       Fe631   2.123       .  S
C242        C358   1.477       .  S
Fe243       O259   2.050       .  S
Fe243       O249   2.033       .  S
Fe243       O256   2.047       .  S
Fe243       O248   2.045       .  S
Fe243       O254   1.938       .  S
Fe244       O247   2.094       .  S
Fe244       O251   2.062       .  S
Fe244       O255   2.112       .  S
Fe244       O260   2.022       .  S
Fe244       O254   1.948       .  S
Fe245       O263   2.056       .  S
Fe245       O250   2.130       .  S
Fe245       O257   2.142       .  S
Fe245       O246   2.063       .  S
Fe245       O254   1.961       .  S
O246        C253   1.263       .  A
O247        C261   1.278       .  A
O248        C253   1.260       .  A
O249        C252   1.270       .  A
O250        C262   1.285       .  A
O251        C264   1.263       .  A
C252        O257   1.288       .  A
C252        C285   1.477       .  S
C253        C282   1.461       .  S
O255        C258   1.281       .  A
O256        C258   1.273       .  A
C258        C345   1.484       .  S
O259        C264   1.262       .  A
O260        C262   1.262       .  A
C261        O263   1.265       .  A
C261        C270   1.484       .  S
C262        C266   1.480       .  S
C264        C350   1.470       .  S
C265        C266   1.335       .  D
C265        H267   1.087       .  S
C266        H268   1.088       .  S
C269        C270   1.337       .  D
C269        H271   1.088       .  S
C270        H272   1.086       .  S
C273        C274   1.349       .  D
C273        H275   1.086       .  S
C274        H276   1.086       .  S
C277        C278   1.342       .  D
C277        H279   1.087       .  S
C278        H280   1.088       .  S
C281        C282   1.343       .  D
C281        H283   1.087       .  S
C282        H284   1.090   1_565  S
C285        C286   1.348   1_565  D
C285        H287   1.087       .  S
C286        H288   1.086       .  S
C289        C290   1.343       .  D
C289        H291   1.088       .  S
C290        H292   1.088       .  S
C293        C294   1.340       .  D
C293        H295   1.088       .  S
C294        H296   1.086       .  S
C297        C298   1.346   1_655  D
C297        H299   1.087       .  S
C298        H300   1.087       .  S
C301        C302   1.344       .  D
C301        H303   1.090       .  S
C302        H304   1.086       .  S
C305        C306   1.344       .  D
C305        H307   1.087       .  S
C306        H308   1.086       .  S
C309        C310   1.346       .  D
C309        H311   1.087       .  S
C310        H312   1.086       .  S
C313        C314   1.353       .  D
C313        H315   1.086       .  S
C314        H316   1.087       .  S
C317        C318   1.337       .  D
C317        H319   1.088       .  S
C318        H320   1.088       .  S
C321        C322   1.336       .  D
C321        H323   1.087       .  S
C322        H324   1.088       .  S
C325        C326   1.342       .  D
C325        H327   1.087       .  S
C326        H328   1.086       .  S
C329        C330   1.342       .  D
C329        H331   1.088       .  S
C330        H332   1.088       .  S
C333        C334   1.341       .  D
C333        H335   1.087       .  S
C334        H336   1.086       .  S
C337        C338   1.337   1_565  D
C337        H339   1.087       .  S
C338        H340   1.087       .  S
C341        C342   1.345   1_565  D
C341        H343   1.085       .  S
C342        H344   1.089       .  S
C345        C346   1.348       .  D
C345        H347   1.085       .  S
C346        H348   1.086       .  S
C349        C350   1.346       .  D
C349        H351   1.087       .  S
C350        H352   1.086       .  S
C353        C354   1.345       .  D
C353        H355   1.087       .  S
C354        H356   1.085       .  S
C357        C358   1.344       .  D
C357        H359   1.087       .  S
C358        H360   1.087       .  S
C361        C362   1.346   1_455  D
C361        H363   1.086       .  S
C362        H364   1.087       .  S
C365        C366   1.346   1_455  D
C365        H367   1.087       .  S
C366        H368   1.087       .  S
C369        C370   1.339       .  D
C369        H371   1.086       .  S
C370        H372   1.090       .  S
C373        C374   1.348       .  D
C373        H375   1.087       .  S
C374        H376   1.086       .  S
C377        C378   1.345       .  D
C377        H379   1.087       .  S
C378        H380   1.086       .  S
C381        C382   1.342       .  D
C381        H383   1.087       .  S
C382        H384   1.087       .  S
C385        C386   1.349       .  D
C385        H387   1.085       .  S
C386        H388   1.088       .  S
C389        C390   1.354       .  D
C389        H391   1.087       .  S
C390        H392   1.086       .  S
C393        C394   1.346       .  D
C393        H395   1.087       .  S
C394        H396   1.086       .  S
C397        C398   1.342       .  D
C397        H399   1.088       .  S
C398        H400   1.088       .  S
C401        C402   1.339       .  D
C401        H403   1.087       .  S
C402        H404   1.088       .  S
C405        C406   1.349       .  D
C405        H407   1.087       .  S
C406        H408   1.086       .  S
Fe409       O425   2.056       .  S
Fe409       O415   2.038       .  S
Fe409       O422   2.060       .  S
Fe409       O414   2.036       .  S
Fe409       O420   1.960       .  S
Fe410       O413   2.060       .  S
Fe410       O417   2.094       .  S
Fe410       O421   2.083       .  S
Fe410       O426   2.069       .  S
Fe410       O420   1.976       .  S
Fe411       O429   2.074       .  S
Fe411       O416   2.052       .  S
Fe411       O423   2.061       .  S
Fe411       O412   2.091       .  S
Fe411       O420   1.999       .  S
O412        C419   1.272       .  A
O413        C427   1.271       .  A
O414        C419   1.269       .  A
O415        C418   1.266       .  A
O416        C428   1.264       .  A
O417        C430   1.271       .  A
C418        O423   1.263       .  A
C418        C798   1.473       .  S
C419        C793   1.484       .  S
O421        C424   1.270       .  A
O422        C424   1.267       .  A
C424        C805   1.487       .  S
O425        C430   1.269       .  A
O426        C428   1.273       .  A
C427        O429   1.271       .  A
C427        C810   1.478       .  S
C428        C814   1.476       .  S
C430        C802   1.493       .  S
Fe431       O447   2.040       .  S
Fe431       O437   2.031       .  S
Fe432       O443   2.087   1_554  S
Fe432       O448   2.041   1_554  S
Fe432       O442   1.980       .  S
Fe433       O438   2.100       .  S
Fe433       O434   2.070       .  S
Fe433       O442   1.985   1_556  S
O434        C441   1.265       .  A
O435        C449   1.274       .  A
O436        C441   1.267       .  A
O437        C440   1.266       .  A
O438        C450   1.277       .  A
O439        C452   1.268       .  A
C440        O445   1.274       .  A
C440        C781   1.455       .  S
C441        C778   1.481       .  S
O443        C446   1.274       .  A
O444        C446   1.272       .  A
C446        C806   1.482       .  S
O447        C452   1.258       .  A
O448        C450   1.264       .  A
C449        O451   1.270       .  A
C449        C790   1.478       .  S
C450        C786   1.478       .  S
C452        C801   1.482       .  S
Fe453       O469   2.100       .  S
Fe453       O459   2.017       .  S
Fe453       O466   2.022       .  S
Fe453       O458   2.107       .  S
Fe453       O464   1.961       .  S
Fe454       O457   2.073       .  S
Fe454       O461   2.076       .  S
Fe454       O465   2.094       .  S
Fe454       O470   2.075       .  S
Fe454       O464   1.971       .  S
Fe455       O473   2.069       .  S
Fe455       O460   2.068       .  S
Fe455       O467   2.094       .  S
Fe455       O456   2.075       .  S
Fe455       O464   1.979       .  S
O456        C463   1.269       .  A
O457        C471   1.271       .  A
O458        C463   1.279       .  A
O459        C462   1.257       .  A
O460        C472   1.267       .  A
O461        C474   1.269       .  A
C462        O467   1.271       .  A
C462        C773   1.458       .  S
C463        C769   1.502       .  S
O465        C468   1.274       .  A
O466        C468   1.259       .  A
C468        C761   1.463       .  S
O469        C474   1.276       .  A
O470        C472   1.274       .  A
C471        O473   1.273       .  A
C471        C789   1.478       .  S
C472        C785   1.483       .  S
C474        C765   1.500       .  S
Fe475       O491   2.084       .  S
Fe475       O481   2.056       .  S
Fe476       O487   2.078   1_554  S
Fe476       O492   2.037   1_554  S
Fe476       O486   1.948       .  S
Fe477       O482   2.089       .  S
Fe477       O478   2.107       .  S
Fe477       O486   1.964   1_556  S
O478        C485   1.277       .  A
O479        C493   1.271       .  A
O480        C485   1.264       .  A
O481        C484   1.265       .  A
O482        C494   1.277       .  A
O483        C496   1.267       .  A
C484        O489   1.272       .  A
C484        C750   1.481       .  S
C485        C745   1.461       .  S
O487        C490   1.267       .  A
O488        C490   1.266       .  A
C490        C754   1.486       .  S
O491        C496   1.273       .  A
O492        C494   1.264       .  A
C493        O495   1.272       .  A
C493        C809   1.475       .  S
C494        C813   1.466       .  S
C496        C757   1.483       .  S
Fe497       O513   2.050       .  S
Fe497       O503   2.070       .  S
Fe498       O509   2.048       .  S
Fe498       O514   2.123       .  S
Fe498       O508   1.950   1_556  S
Fe499       O504   2.048       .  S
Fe499       O500   2.164       .  S
Fe499       O508   1.952   1_556  S
O500        C507   1.292       .  A
O501        C515   1.266       .  A
O502        C507   1.264       .  A
O503        C506   1.271       .  A
O504        C516   1.264       .  A
O505        C518   1.276       .  A
C506        O511   1.260       .  A
C506        C774   1.474       .  S
C507        C770   1.490       .  S
O509        C512   1.264       .  A
O510        C512   1.263       .  A
C512        C737   1.464       .  S
O513        C518   1.268       .  A
O514        C516   1.281       .  A
C515        O517   1.274       .  A
C515        C733   1.477       .  S
C516        C730   1.493       .  S
C518        C741   1.483       .  S
Fe519       O535   2.061       .  S
Fe519       O525   2.040       .  S
Fe519       O532   2.055       .  S
Fe519       O524   2.048       .  S
Fe519       O530   1.973       .  S
Fe520       O523   2.055       .  S
Fe520       O527   2.071       .  S
Fe520       O531   2.068       .  S
Fe520       O536   2.055       .  S
Fe520       O530   1.980       .  S
Fe521       O539   2.061       .  S
Fe521       O526   2.116       .  S
Fe521       O533   2.115       .  S
Fe521       O522   2.075       .  S
Fe521       O530   1.986       .  S
O522        C529   1.268       .  A
O523        C537   1.268       .  A
O524        C529   1.268       .  A
O525        C528   1.264       .  A
O526        C538   1.280       .  A
O527        C540   1.267       .  A
C528        O533   1.277       .  A
C528        C749   1.480       .  S
C529        C746   1.479       .  S
O531        C534   1.270       .  A
O532        C534   1.266       .  A
C534        C722   1.474       .  S
O535        C540   1.267       .  A
O536        C538   1.265       .  A
C537        O539   1.267       .  A
C537        C734   1.465       .  S
C538        C729   1.493       .  S
C540        C725   1.475       .  S
Fe541       O557   2.043       .  S
Fe541       O547   2.032       .  S
Fe541       O554   2.047       .  S
Fe541       O546   2.037       .  S
Fe541       O552   1.958       .  S
Fe542       O545   2.029       .  S
Fe542       O549   2.101       .  S
Fe542       O553   2.068       .  S
Fe542       O558   2.080       .  S
Fe542       O552   1.970       .  S
Fe543       O561   2.109       .  S
Fe543       O548   2.079       .  S
Fe543       O555   2.093       .  S
Fe543       O544   2.118       .  S
Fe543       O552   1.992       .  S
O544        C551   1.275       .  A
O545        C559   1.262       .  A
O546        C551   1.262       .  A
O547        C550   1.264       .  A
O548        C560   1.270       .  A
O549        C562   1.270       .  A
C550        O555   1.274       .  A
C550        C710   1.465       .  S
C551        C705   1.485       .  S
O553        C556   1.269       .  A
O554        C556   1.269       .  A
C556        C738   1.468       .  S
O557        C562   1.262       .  A
O558        C560   1.277       .  A
C559        O561   1.278       .  A
C559        C713   1.474       .  S
C560        C717   1.494       .  S
C562        C742   1.497       .  S
Fe563       O579   2.041       .  S
Fe563       O569   2.039       .  S
Fe564       O575   2.059   1_554  S
Fe564       O580   2.032   1_554  S
Fe564       O574   1.984       .  S
Fe565       O570   2.079   1_554  S
Fe565       O566   2.080   1_554  S
Fe565       O574   1.987       .  S
O566        C573   1.269       .  A
O567        C581   1.268       .  A
O568        C573   1.264       .  A
O569        C572   1.262       .  A
O570        C582   1.273       .  A
O571        C584   1.274       .  A
C572        O577   1.268       .  A
C572        C694   1.470   1_545  S
C573        C689   1.465       .  S
O575        C578   1.265       .  A
O576        C578   1.268       .  A
C578        C721   1.474       .  S
O579        C584   1.267       .  A
O580        C582   1.261       .  A
C581        O583   1.276       .  A
C581        C698   1.487       .  S
C582        C702   1.466       .  S
C584        C726   1.485       .  S
Fe585       O601   2.051       .  S
Fe585       O591   2.020       .  S
Fe586       O597   2.093   1_554  S
Fe586       O602   2.022   1_554  S
Fe586       O596   1.975   1_554  S
Fe587       O592   2.134       .  S
Fe587       O588   2.084       .  S
Fe587       O596   1.996       .  S
O588        C595   1.267       .  A
O589        C603   1.274       .  A
O590        C595   1.258       .  A
O591        C594   1.263       .  A
O592        C604   1.284       .  A
O593        C606   1.267       .  A
C594        O599   1.275       .  A
C594        C797   1.455       .  S
C595        C794   1.462       .  S
O597        C600   1.271       .  A
O598        C600   1.268       .  A
C600        C681   1.486       .  S
O601        C606   1.264       .  A
O602        C604   1.263       .  A
C603        O605   1.268       .  A
C603        C714   1.487       .  S
C604        C718   1.481       .  S
C606        C685   1.487       .  S
Fe607       O623   2.044       .  S
Fe607       O613   2.061       .  S
Fe607       O620   2.060       .  S
Fe607       O612   2.028       .  S
Fe607       O618   1.940       .  S
Fe608       O611   2.076       .  S
Fe608       O615   2.116       .  S
Fe608       O619   2.085       .  S
Fe608       O624   2.079       .  S
Fe608       O618   1.946       .  S
Fe609       O627   2.094       .  S
Fe609       O614   2.041       .  S
Fe609       O621   2.056       .  S
Fe609       O610   2.121       .  S
Fe609       O618   1.961       .  S
O610        C617   1.281       .  A
O611        C625   1.275       .  A
O612        C617   1.265       .  A
O613        C616   1.266       .  A
O614        C626   1.264       .  A
O615        C628   1.281       .  A
C616        O621   1.261       .  A
C616        C782   1.473       .  S
C617        C777   1.466       .  S
O619        C622   1.268       .  A
O620        C622   1.263       .  A
C622        C682   1.478       .  S
O623        C628   1.271       .  A
O624        C626   1.276       .  A
C625        O627   1.275       .  A
C625        C697   1.493       .  S
C626        C701   1.469       .  S
C628        C686   1.477       .  S
Fe629       O645   2.043       .  S
Fe629       O635   2.063       .  S
Fe630       O641   2.044   1_554  S
Fe630       O646   2.084   1_554  S
Fe630       O640   1.956   1_554  S
Fe631       O636   2.074   1_554  S
Fe631       O632   2.130   1_554  S
Fe631       O640   1.969   1_554  S
O632        C639   1.281       .  A
O633        C647   1.267       .  A
O634        C639   1.272       .  A
O635        C638   1.269       .  A
O636        C648   1.274       .  A
O637        C650   1.285       .  A
C638        O643   1.264       .  A
C638        C709   1.477   1_455  S
C639        C706   1.497   1_455  S
O641        C644   1.258       .  A
O642        C644   1.267       .  A
C644        C762   1.473       .  S
O645        C650   1.267       .  A
O646        C648   1.277       .  A
C647        O649   1.277       .  A
C647        C677   1.494       .  S
C648        C673   1.485       .  S
C650        C766   1.493       .  S
Fe651       O667   2.061       .  S
Fe651       O657   2.028       .  S
Fe651       O664   2.053       .  S
Fe651       O656   2.043       .  S
Fe651       O662   1.973       .  S
Fe652       O655   2.070       .  S
Fe652       O659   2.082       .  S
Fe652       O663   2.087       .  S
Fe652       O668   2.064       .  S
Fe652       O662   1.977       .  S
Fe653       O671   2.085       .  S
Fe653       O658   2.088       .  S
Fe653       O665   2.106       .  S
Fe653       O654   2.081       .  S
Fe653       O662   1.997       .  S
O654        C661   1.267       .  A
O655        C669   1.270       .  A
O656        C661   1.264       .  A
O657        C660   1.267       .  A
O658        C670   1.275       .  A
O659        C672   1.272       .  A
C660        O665   1.276       .  A
C660        C693   1.486       .  S
C661        C690   1.472       .  S
O663        C666   1.271       .  A
O664        C666   1.266       .  A
C666        C753   1.478       .  S
O667        C672   1.265       .  A
O668        C670   1.270       .  A
C669        O671   1.270       .  A
C669        C678   1.485       .  S
C670        C674   1.482       .  S
C672        C758   1.484       .  S
C673        C674   1.347       .  D
C673        H675   1.086       .  S
C674        H676   1.086       .  S
C677        C678   1.354       .  D
C677        H679   1.086       .  S
C678        H680   1.087       .  S
C681        C682   1.346       .  D
C681        H683   1.086       .  S
C682        H684   1.087       .  S
C685        C686   1.349       .  D
C685        H687   1.086       .  S
C686        H688   1.087       .  S
C689        C690   1.342   1_545  D
C689        H691   1.087       .  S
C690        H692   1.086       .  S
C693        C694   1.349       .  D
C693        H695   1.086       .  S
C694        H696   1.089       .  S
C697        C698   1.348       .  D
C697        H699   1.085       .  S
C698        H700   1.086       .  S
C701        C702   1.335       .  D
C701        H703   1.088       .  S
C702        H704   1.088       .  S
C705        C706   1.348       .  D
C705        H707   1.088   1_655  S
C706        H708   1.085       .  S
C709        C710   1.341       .  D
C709        H711   1.087       .  S
C710        H712   1.088       .  S
C713        C714   1.340       .  D
C713        H715   1.087       .  S
C714        H716   1.086       .  S
C717        C718   1.342       .  D
C717        H719   1.086       .  S
C718        H720   1.088       .  S
C721        C722   1.343       .  D
C721        H723   1.087       .  S
C722        H724   1.088       .  S
C725        C726   1.350       .  D
C725        H727   1.086       .  S
C726        H728   1.085       .  S
C729        C730   1.342       .  D
C729        H731   1.086       .  S
C730        H732   1.086       .  S
C733        C734   1.347       .  D
C733        H735   1.085       .  S
C734        H736   1.086       .  S
C737        C738   1.339       .  D
C737        H739   1.087       .  S
C738        H740   1.087       .  S
C741        C742   1.354       .  D
C741        H743   1.088       .  S
C742        H744   1.086       .  S
C745        C746   1.343   1_565  D
C745        H747   1.087       .  S
C746        H748   1.087       .  S
C749        C750   1.349   1_545  D
C749        H751   1.086       .  S
C750        H752   1.087       .  S
C753        C754   1.349       .  D
C753        H755   1.086       .  S
C754        H756   1.085       .  S
C757        C758   1.343       .  D
C757        H759   1.087       .  S
C758        H760   1.087       .  S
C761        C762   1.337       .  D
C761        H763   1.088       .  S
C762        H764   1.087       .  S
C765        C766   1.347       .  D
C765        H767   1.086       .  S
C766        H768   1.087       .  S
C769        C770   1.345   1_455  D
C769        H771   1.086       .  S
C770        H772   1.087       .  S
C773        C774   1.335   1_455  D
C773        H775   1.088       .  S
C774        H776   1.087       .  S
C777        C778   1.342       .  D
C777        H779   1.087       .  S
C778        H780   1.087       .  S
C781        C782   1.339       .  D
C781        H783   1.087       .  S
C782        H784   1.087       .  S
C785        C786   1.340       .  D
C785        H787   1.087       .  S
C786        H788   1.088       .  S
C789        C790   1.343       .  D
C789        H791   1.088       .  S
C790        H792   1.088       .  S
C793        C794   1.344       .  D
C793        H795   1.086       .  S
C794        H796   1.088       .  S
C797        C798   1.338       .  D
C797        H799   1.087       .  S
C798        H800   1.086       .  S
C801        C802   1.347       .  D
C801        H803   1.087       .  S
C802        H804   1.086       .  S
C805        C806   1.351       .  D
C805        H807   1.086       .  S
C806        H808   1.086       .  S
C809        C810   1.345       .  D
C809        H811   1.087       .  S
C810        H812   1.086       .  S
C813        C814   1.335       .  D
C813        H815   1.089       .  S
C814        H816   1.087       .  S
