geometry optimzed in LAMMPS
_audit_creation_date              2020-11-30 
_audit_creation_method            'lammps2cif' 
_symmetry_space_group_name_H-M    'P1' 
_symmetry_Int_Tables_number       1 
_symmetry_cell_setting            triclinic 
loop_ 
_symmetry_equiv_pos_as_xyz 
  x,y,z 
_cell_length_a                    53.01483335 
_cell_length_b                    52.834133953009605 
_cell_length_c                    63.31230176056572 
_cell_angle_alpha                 89.97846496163815 
_cell_angle_beta                  90.00498631629358 
_cell_angle_gamma                 119.8024114645887 
loop_ 
_atom_site_label 
_atom_site_type_symbol 
_atom_site_fract_x 
_atom_site_fract_y 
_atom_site_fract_z 
_atom_site_charge 
Zn1        Zn  0.35636752  0.14763471  0.92150351     1.49700
Zn2        Zn  0.29533273  0.14578556  0.92101098     1.49400
Zn3        Zn  0.35387165  0.20665771  0.92202051     1.49100
Zn4        Zn  0.33612689  0.16775764  0.87986539     1.49500
O5          O  0.33545396  0.16692278  0.91095994    -1.84000
O6          O  0.33057516  0.11283694  0.93963114    -0.74600
O7          O  0.28545259  0.17097398  0.93905623    -0.74500
O8          O  0.38756576  0.21508845  0.94087780    -0.74000
O9          O  0.28815286  0.11161521  0.93905374    -0.74700
O10         O  0.39025240  0.17453673  0.93984786    -0.74300
O11         O  0.32614241  0.21373987  0.93929213    -0.74800
O12         O  0.35657434  0.20963068  0.86906893    -0.74200
O13         O  0.26745484  0.13117912  0.89672044    -0.75000
O14         O  0.36901307  0.23585505  0.89856384    -0.74400
O15         O  0.29507478  0.14648684  0.86796233    -0.74900
O16         O  0.35746445  0.14760441  0.86850535    -0.74800
O17         O  0.37135599  0.13400005  0.89743178    -0.74500
C18         C  0.30411452  0.10140881  0.94534650     0.77200
C19         C  0.29986687  0.19744308  0.94498587     0.77700
C20         C  0.39957463  0.20044407  0.94646061     0.76700
C21         C  0.36861104  0.23423408  0.87850192     0.77100
C22         C  0.27011485  0.13300926  0.87670742     0.78200
C23         C  0.37017394  0.13529985  0.87738654     0.77300
Zn24       Zn  0.33690582  0.16776658  0.58541580     1.49700
Zn25       Zn  0.37639795  0.18818073  0.62651520     1.49400
Zn26       Zn  0.31554359  0.18807203  0.62511049     1.49100
Zn27       Zn  0.31579895  0.12727038  0.62593049     1.49500
O28         O  0.33620233  0.16783198  0.61599208    -1.84000
O29         O  0.37716897  0.18838929  0.57432288    -0.74600
O30         O  0.38339494  0.22266405  0.64454082    -0.74500
O31         O  0.30165308  0.20243424  0.60037894    -0.74000
O32         O  0.40572211  0.20359658  0.60250005    -0.74700
O33         O  0.31657913  0.18725860  0.57300564    -0.74300
O34         O  0.34163451  0.22292099  0.64293040    -0.74800
O35         O  0.28074851  0.11932277  0.64342019    -0.74200
O36         O  0.38454811  0.16072525  0.64367819    -0.75000
O37         O  0.28038240  0.16118531  0.64237171    -0.74400
O38         O  0.34263939  0.11888913  0.64334857    -0.74900
O39         O  0.30156086  0.09847091  0.60161254    -0.74800
O40         O  0.31759117  0.12764139  0.57374018    -0.74500
C41         C  0.40234203  0.20162940  0.58252428     0.77200
C42         C  0.36779936  0.23400443  0.64932088     0.77700
C43         C  0.30370501  0.20009094  0.58051286     0.76700
C44         C  0.26922627  0.13472198  0.64831622     0.77100
C45         C  0.36922350  0.13392895  0.64881804     0.78200
C46         C  0.30425475  0.10222822  0.58168989     0.77300
C47         C  0.00372651  0.00137072  0.78384322     0.45600
H48         H  0.00393296  0.00164698  0.80139247    -0.03500
C49         C  0.00316205  0.00034120  0.74262305     0.45600
H50         H  0.00282566  0.99997518  0.72507515    -0.03500
C51         C  0.48792169  0.01623127  0.77386878    -0.17200
C52         C  0.03421457  0.01627491  0.77383480    -0.16900
C53         C  0.48851790  0.47045178  0.77447627    -0.17300
C54         C  0.48782959  0.01578009  0.75215091    -0.17300
C55         C  0.03387838  0.01629878  0.75209643    -0.16800
C56         C  0.48806929  0.46994665  0.75277970    -0.17100
Zn57       Zn  0.14787121  0.35435857  0.42245347     1.49700
Zn58       Zn  0.20773117  0.35423782  0.42222863     1.49400
Zn59       Zn  0.14821025  0.29416956  0.42217318     1.49100
Zn60       Zn  0.16761713  0.33421454  0.38058368     1.49500
O61         O  0.16782522  0.33424774  0.41168756    -1.84000
O62         O  0.17390526  0.38826005  0.44109340    -0.74600
O63         O  0.21629118  0.32785965  0.43995497    -0.74500
O64         O  0.11484951  0.28650435  0.44118420    -0.74000
O65         O  0.21558082  0.38800892  0.44095525    -0.74700
O66         O  0.11387092  0.32798378  0.44076205    -0.74300
O67         O  0.17478237  0.28586703  0.43981890    -0.74800
O68         O  0.14647342  0.29253784  0.36913347    -0.74200
O69         O  0.23604742  0.36933256  0.39833722    -0.75000
O70         O  0.13305876  0.26550066  0.39826320    -0.74400
O71         O  0.20909547  0.35522102  0.36921585    -0.74900
O72         O  0.14709090  0.35546368  0.36955178    -0.74800
O73         O  0.13382779  0.36929099  0.39867338    -0.74500
C74         C  0.20004897  0.39867678  0.44727616     0.77200
C75         C  0.20100468  0.30145195  0.44584847     0.77700
C76         C  0.10393118  0.30194351  0.44727476     0.76700
C77         C  0.13387206  0.26765185  0.37820820     0.77100
C78         C  0.23386679  0.36820125  0.37829843     0.78200
C79         C  0.13498205  0.36825266  0.37861820     0.77300
Zn80       Zn  0.20762870  0.35268619  0.10483129     1.49700
Zn81       Zn  0.14699019  0.29364749  0.10484698     1.49400
Zn82       Zn  0.16779474  0.33345696  0.14672227     1.49100
Zn83       Zn  0.14849803  0.35444831  0.10522205     1.49500
O84         O  0.16777182  0.33357385  0.11558992    -1.84000
O85         O  0.21476419  0.32596689  0.08616012    -0.74600
O86         O  0.13330287  0.26491077  0.12860930    -0.74500
O87         O  0.20935271  0.35420850  0.15784078    -0.74000
O88         O  0.17219894  0.28508180  0.08590955    -0.74700
O89         O  0.23622820  0.36617692  0.12868791    -0.74300
O90         O  0.14761389  0.29170878  0.15783774    -0.74800
O91         O  0.13417553  0.36858716  0.12921578    -0.74200
O92         O  0.11247105  0.28624674  0.08723360    -0.75000
O93         O  0.14667979  0.35402548  0.15832833    -0.74400
O94         O  0.11429072  0.32906802  0.08686472    -0.74900
O95         O  0.17509161  0.38875881  0.08724452    -0.74800
O96         O  0.21633452  0.38760218  0.08698899    -0.74500
C97         C  0.19845855  0.29993138  0.07978678     0.77200
C98         C  0.13501833  0.26692161  0.14865274     0.77700
C99         C  0.23409981  0.36567477  0.14873676     0.76700
C100        C  0.13464036  0.36690445  0.14925778     0.77100
C101        C  0.10261900  0.30257651  0.08104363     0.78200
C102        C  0.20124695  0.39901743  0.08114698     0.77300
C103        C  0.99993714  0.00030698  0.28419699     0.45600
H104        H  0.00005187  0.00057003  0.30174681    -0.03500
C105        C  0.99969982  0.00001893  0.24294188     0.45600
H106        H  0.99955430  0.99974332  0.22539098    -0.05700
C107        C  0.01551581  0.48510611  0.27443188    -0.17200
C108        C  0.46927835  0.48504627  0.27452129    -0.16900
C109        C  0.01492066  0.03093234  0.27430664    -0.17300
C110        C  0.01504306  0.48464929  0.25271346    -0.17300
C111        C  0.46919801  0.48461698  0.25282643    -0.16800
C112        C  0.01516638  0.03079290  0.25258241    -0.17100
C113        C  0.03056812  0.05756159  0.23953591    -0.03200
C114        C  0.01599425  0.06309216  0.22327762    -0.09000
C115        C  0.02989095  0.08941696  0.21212888    -0.16700
C116        C  0.05862445  0.11030326  0.21697800     0.25500
C117        C  0.07360803  0.10448826  0.23269643    -0.18300
C118        C  0.05970005  0.07821565  0.24386345    -0.07200
C119        C  0.07260671  0.13779883  0.20600154    -0.13700
C120        C  0.08402050  0.16072931  0.19666612    -0.13400
C121        C  0.09705695  0.18753496  0.18482021     0.25400
C122        C  0.11220019  0.21449411  0.19512196    -0.18800
C123        C  0.12460782  0.24044957  0.18344328    -0.07300
C124        C  0.12201076  0.23969042  0.16129782    -0.03400
C125        C  0.10679002  0.21242536  0.15114943    -0.08700
C126        C  0.09441320  0.18659932  0.16283223    -0.16300
H127        H  0.49367673  0.04750931  0.21960752     0.11800
H128        H  0.01812397  0.09363086  0.19992168     0.11100
H129        H  0.09591582  0.12037451  0.23647269     0.11000
H130        H  0.07153031  0.07414459  0.25609264     0.11600
H131        H  0.11438011  0.21545384  0.21215989     0.11600
H132        H  0.13622589  0.26104361  0.19172610     0.11600
H133        H  0.10434145  0.21098724  0.13413990     0.11700
H134        H  0.08273118  0.16587274  0.15469563     0.10600
C135        C  0.44235087  0.46913918  0.24001773    -0.03200
C136        C  0.42309499  0.43925375  0.24324918    -0.09000
C137        C  0.39676840  0.42502256  0.23223357    -0.16700
C138        C  0.38945386  0.44055934  0.21791863     0.25500
C139        C  0.40880131  0.47023884  0.21441834    -0.18300
C140        C  0.43516136  0.48442862  0.22536838    -0.07200
C141        C  0.36199236  0.42629694  0.20700779    -0.13700
C142        C  0.33925216  0.41518382  0.19752225    -0.13400
C143        C  0.31272397  0.40272198  0.18545675     0.25400
C144        C  0.31391787  0.40200477  0.16341840    -0.18800
C145        C  0.28835627  0.39008416  0.15153568    -0.07300
C146        C  0.26110843  0.37861993  0.16153100    -0.03400
C147        C  0.26010654  0.37954204  0.18371930    -0.08700
C148        C  0.28578186  0.39154565  0.19559306    -0.16300
H149        H  0.42833452  0.42709005  0.25448747     0.11800
H150        H  0.38201526  0.40204008  0.23504416     0.11100
H151        H  0.40333621  0.48250124  0.20342997     0.11000
H152        H  0.44939048  0.00750225  0.22294492     0.11600
H153        H  0.33463840  0.41065885  0.15539750     0.11600
H154        H  0.28997567  0.38976656  0.13449866     0.11600
H155        H  0.23952583  0.37098275  0.19189662     0.11700
H156        H  0.28461635  0.39208699  0.21265801     0.10600
C157        C  0.12075538  0.38027475  0.16198204    -0.03200
C158        C  0.12071998  0.37946584  0.18420955    -0.09000
C159        C  0.10750278  0.39226732  0.19589841    -0.16700
C160        C  0.09417259  0.40599819  0.18553054     0.25500
C161        C  0.09407951  0.40682444  0.16346584    -0.18300
C162        C  0.10722760  0.39410352  0.15178649    -0.07200
C163        C  0.08048620  0.41925845  0.19733461    -0.13700
C164        C  0.06864698  0.43052568  0.20652859    -0.13400
C165        C  0.05421723  0.44377111  0.21740098     0.25400
C166        C  0.06099638  0.47239620  0.21262899    -0.18800
C167        C  0.04753297  0.48544800  0.22366871    -0.07300
C168        C  0.02739176  0.47006199  0.23970523    -0.03400
C169        C  0.02002241  0.44107227  0.24395559    -0.08700
C170        C  0.03344001  0.42805854  0.23292430    -0.16300
H171        H  0.13089430  0.36899001  0.19254769     0.11800
H172        H  0.10768743  0.39146037  0.21299285     0.11100
H173        H  0.08382319  0.41733474  0.15525249     0.11000
H174        H  0.10676569  0.39513305  0.13471869     0.11600
H175        H  0.07694296  0.48473447  0.20057988     0.11600
H176        H  0.05347037  0.50780239  0.22016659     0.11600
H177        H  0.00419162  0.42868063  0.25605172     0.11700
H178        H  0.02783000  0.40585172  0.23665641     0.10600
C179        C  0.44245965  0.47370765  0.28745722    -0.03200
C180        C  0.42166801  0.48208167  0.28292216    -0.09000
C181        C  0.39540007  0.46977122  0.29399589    -0.16700
C182        C  0.38972230  0.44913130  0.30983208     0.25500
C183        C  0.41073520  0.44141854  0.31489897    -0.18300
C184        C  0.43703023  0.45376170  0.30382945    -0.07200
C185        C  0.36222080  0.43554520  0.32067533    -0.13700
C186        C  0.33934412  0.42384347  0.32997079    -0.13400
C187        C  0.31268983  0.40990256  0.34186895     0.25400
C188        C  0.31374546  0.41116046  0.36391906    -0.18800
C189        C  0.28809898  0.39757468  0.37568043    -0.07300
C190        C  0.26089293  0.38246570  0.36555348    -0.03400
C191        C  0.26000315  0.38132681  0.34334242    -0.08700
C192        C  0.28578510  0.39496332  0.33158040    -0.16300
H193        H  0.42564535  0.49789316  0.27062657     0.11800
H194        H  0.37941695  0.47610085  0.29005171     0.11100
H195        H  0.40662475  0.42555791  0.32719615     0.11000
H196        H  0.45264649  0.44703942  0.30764060     0.11600
H197        H  0.33443226  0.42263651  0.37204700     0.11600
H198        H  0.28963596  0.39895347  0.39273985     0.11600
H199        H  0.23944610  0.36989477  0.33507318     0.11700
H200        H  0.28473738  0.39383302  0.31449346     0.10600
C201        C  0.02684883  0.05791010  0.28720545    -0.03200
C202        C  0.01849710  0.07887057  0.28311484    -0.09000
C203        C  0.03128338  0.10526050  0.29418272    -0.16700
C204        C  0.05248601  0.11096907  0.30952100     0.25500
C205        C  0.06033437  0.08981085  0.31404858    -0.18300
C206        C  0.04745629  0.06332477  0.30302085    -0.07200
C207        C  0.06638541  0.13860955  0.32043356    -0.13700
C208        C  0.07818357  0.16159854  0.32975592    -0.13400
C209        C  0.09223003  0.18841072  0.34168830     0.25400
C210        C  0.09278215  0.18732758  0.36374100    -0.18800
C211        C  0.10637288  0.21308216  0.37551646    -0.07300
C212        C  0.11970994  0.24047854  0.36542843    -0.03400
C213        C  0.11911735  0.24140658  0.34321629    -0.08700
C214        C  0.10544566  0.21551944  0.33143791    -0.16300
H215        H  0.00234289  0.07492203  0.27114936     0.11800
H216        H  0.02486502  0.12132259  0.29061796     0.11100
H217        H  0.07665204  0.09393125  0.32592064     0.11000
H218        H  0.05417535  0.04743865  0.30637137     0.11600
H219        H  0.08268556  0.16652400  0.37186872     0.11600
H220        H  0.10639691  0.21147799  0.39256686     0.11600
H221        H  0.12914188  0.26208786  0.33495332     0.11700
H222        H  0.10518784  0.21665237  0.31435977     0.10600
C223        C  0.03113118  0.47376274  0.28731680    -0.03200
C224        C  0.06044275  0.48274637  0.28312262    -0.09000
C225        C  0.07446604  0.47017426  0.29396478    -0.16700
C226        C  0.05940881  0.44866620  0.30922660     0.25500
C227        C  0.03045217  0.44021637  0.31386784    -0.18300
C228        C  0.01642693  0.45277518  0.30301206    -0.07200
C229        C  0.07350385  0.43508380  0.32004143    -0.13700
C230        C  0.08474504  0.42344831  0.32950066    -0.13400
C231        C  0.09751371  0.40960640  0.34163939     0.25400
C232        C  0.09762380  0.41108039  0.36369219    -0.18800
C233        C  0.10975814  0.39759049  0.37566327    -0.07300
C234        C  0.12203161  0.38238200  0.36574309    -0.03400
C235        C  0.12184801  0.38101850  0.34353246    -0.08700
C236        C  0.10963422  0.39453853  0.33157070    -0.16300
H237        H  0.07228804  0.49914073  0.27120137     0.11800
H238        H  0.09691832  0.47701004  0.29030387     0.11100
H239        H  0.01859134  0.42362620  0.32567114     0.11000
H240        H  0.49387991  0.44535469  0.30638115     0.11600
H241        H  0.08829175  0.42265680  0.37165843     0.11600
H242        H  0.10954818  0.39913712  0.39270988     0.11600
H243        H  0.13109469  0.36949846  0.33540411     0.11700
H244        H  0.10962970  0.39322278  0.31449434     0.10600
C245        C  0.29161584  0.07690736  0.56723375    -0.03200
C246        C  0.29304550  0.08150457  0.54525891    -0.09000
C247        C  0.28100133  0.05795906  0.53136331    -0.16700
C248        C  0.26739259  0.02946814  0.53915209     0.25500
C249        C  0.26587580  0.02452538  0.56097185    -0.18300
C250        C  0.27791659  0.04814724  0.57498295    -0.07200
C251        C  0.25505163  0.00556998  0.52451842    -0.13700
C252        C  0.24534324  0.48690181  0.51116823    -0.13400
C253        C  0.23425192  0.46550904  0.49461777     0.25400
C254        C  0.20551666  0.45394009  0.48777771    -0.18800
C255        C  0.19457285  0.43276154  0.47191731    -0.07300
C256        C  0.21228218  0.42286558  0.46273724    -0.03400
C257        C  0.24134111  0.43510793  0.46943859    -0.08700
C258        C  0.25223342  0.45631376  0.48527086    -0.16300
H259        H  0.30337020  0.10333735  0.53873716     0.11800
H260        H  0.28226866  0.06199364  0.51450644     0.11100
H261        H  0.25537294  0.00248229  0.56713263     0.11000
H262        H  0.27650481  0.04392291  0.59180225     0.11600
H263        H  0.19148661  0.46106620  0.49485111     0.11600
H264        H  0.17210378  0.42374041  0.46715761     0.11600
H265        H  0.25554902  0.42799733  0.46268744     0.11700
H266        H  0.27458119  0.46531030  0.49037206     0.10600
C267        C  0.08011377  0.28984984  0.46296197    -0.03200
C268        C  0.06726370  0.30623801  0.46965614    -0.09000
C269        C  0.04659136  0.29590763  0.48581606    -0.16700
C270        C  0.03856738  0.26915973  0.49550273     0.25500
C271        C  0.05072760  0.25239418  0.48866455    -0.18300
C272        C  0.07136118  0.26263670  0.47247603    -0.07200
C273        C  0.01769113  0.25885120  0.51235416    -0.13700
C274        C  0.49926529  0.24989928  0.52584404    -0.13400
C275        C  0.47536303  0.23829872  0.54040897     0.25400
C276        C  0.44705956  0.22454816  0.53247109    -0.18800
C277        C  0.42346218  0.21284288  0.54624381    -0.07300
C278        C  0.42779567  0.21469482  0.56825562    -0.03400
C279        C  0.45637654  0.22875592  0.57616831    -0.08700
C280        C  0.48007225  0.24049873  0.56226959    -0.16300
H281        H  0.07351578  0.32725320  0.46266086     0.11800
H282        H  0.03710417  0.30892582  0.49091000     0.11100
H283        H  0.04449437  0.23156057  0.49599245     0.11000
H284        H  0.08089739  0.24953373  0.46774370     0.11600
H285        H  0.44320629  0.22278000  0.51558337     0.11600
H286        H  0.40178285  0.20223856  0.53958279     0.11600
H287        H  0.46039819  0.23053676  0.59301844     0.11700
H288        H  0.50197830  0.25116810  0.56854352     0.10600
C289        C  0.29099223  0.21227155  0.56561608    -0.03200
C290        C  0.27936734  0.22957401  0.57273796    -0.09000
C291        C  0.26769968  0.24109454  0.55831033    -0.16700
C292        C  0.26746312  0.23533887  0.53669248     0.25500
C293        C  0.27885103  0.21807128  0.52952961    -0.18300
C294        C  0.29055619  0.20664598  0.54384356    -0.07200
C295        C  0.25574130  0.24711302  0.52165763    -0.13700
C296        C  0.24639917  0.25638763  0.50822428    -0.13400
C297        C  0.23551442  0.26720119  0.49183361     0.25400
C298        C  0.20753996  0.24952486  0.48375787    -0.18800
C299        C  0.19659331  0.26034192  0.46828396    -0.07300
C300        C  0.21354075  0.28903623  0.46070765    -0.03400
C301        C  0.24192722  0.30637463  0.46856566    -0.08700
C302        C  0.25280967  0.29549712  0.48404002    -0.16300
H303        H  0.27944686  0.23432786  0.58938119     0.11800
H304        H  0.25893373  0.25449241  0.56399207     0.11100
H305        H  0.27874060  0.21347167  0.51283906     0.11000
H306        H  0.29922539  0.19333833  0.53781293     0.11600
H307        H  0.19404445  0.22752325  0.48962406     0.11600
H308        H  0.17466379  0.24643784  0.46258481     0.11600
H309        H  0.25552645  0.32854944  0.46309153     0.11700
H310        H  0.27456017  0.30929057  0.49012731     0.10600
C311        C  0.47470611  0.02915926  0.73872676    -0.03200
C312        C  0.45523013  0.01288045  0.72256781    -0.09000
C313        C  0.44185606  0.02508528  0.71047387    -0.16700
C314        C  0.44806455  0.05372756  0.71434397     0.25500
C315        C  0.46796802  0.07022877  0.73012917    -0.18300
C316        C  0.48132526  0.05807362  0.74219612    -0.07200
C317        C  0.43387641  0.06624766  0.70238411    -0.13700
C318        C  0.42233595  0.07760529  0.69297753    -0.13400
C319        C  0.40889949  0.09183841  0.68218533     0.25400
C320        C  0.42536754  0.12139403  0.67685868    -0.18800
C321        C  0.41240004  0.13526209  0.66630457    -0.07300
C322        C  0.38272345  0.11970103  0.66092384    -0.03400
C323        C  0.36630585  0.09003908  0.66653245    -0.08700
C324        C  0.37932820  0.07623676  0.67708929    -0.16300
H325        H  0.44990555  0.49055962  0.71965215     0.11800
H326        H  0.42651914  0.01213876  0.69826779     0.11100
H327        H  0.47304177  0.09244530  0.73318686     0.11000
H328        H  0.99670237  0.07116235  0.75432892     0.11600
H329        H  0.44827152  0.13369589  0.68077991     0.11600
H330        H  0.42568347  0.15807174  0.66218329     0.11600
H331        H  0.34344075  0.07739512  0.66260804     0.11700
H332        H  0.36635773  0.05336806  0.68119010     0.10600
C333        C  0.06036852  0.03159660  0.73875678    -0.03200
C334        C  0.06418310  0.01755565  0.72126220    -0.09000
C335        C  0.09005105  0.03106901  0.70969280    -0.16700
C336        C  0.11224474  0.05893557  0.71534117     0.25500
C337        C  0.10815163  0.07359851  0.73222480    -0.18300
C338        C  0.08226794  0.06011172  0.74376438    -0.07200
C339        C  0.13937392  0.07223228  0.70405307    -0.13700
C340        C  0.16220196  0.08313000  0.69472271    -0.13400
C341        C  0.18938502  0.09616039  0.68350354     0.25400
C342        C  0.20297151  0.12561514  0.67781507    -0.18800
C343        C  0.22911083  0.13823978  0.66657806    -0.07300
C344        C  0.24204902  0.12153299  0.66087506    -0.03400
C345        C  0.22833388  0.09196800  0.66683846    -0.08700
C346        C  0.20215927  0.07938708  0.67807377    -0.16300
H347        H  0.04758306  0.49587930  0.71686666     0.11800
H348        H  0.09290543  0.01961579  0.69654061     0.11100
H349        H  0.12506548  0.09529849  0.73660890     0.11000
H350        H  0.07951001  0.07176804  0.75680769     0.11600
H351        H  0.19326916  0.13879274  0.68195373     0.11600
H352        H  0.23906035  0.16103497  0.66223769     0.11600
H353        H  0.23766845  0.07848466  0.66267087     0.11700
H354        H  0.19180427  0.05654921  0.68241052     0.10600
C355        C  0.47251379  0.44295838  0.74009377    -0.03200
C356        C  0.44285179  0.42345662  0.74362338    -0.09000
C357        C  0.42849678  0.39734512  0.73229396    -0.16700
C358        C  0.44364512  0.39060502  0.71727870     0.25500
C359        C  0.47308141  0.41019915  0.71347508    -0.18300
C360        C  0.48742916  0.43627433  0.72481790    -0.07200
C361        C  0.42925854  0.36335855  0.70607006    -0.13700
C362        C  0.41791993  0.34051508  0.69666779    -0.13400
C363        C  0.40508226  0.31338458  0.68529105     0.25400
C364        C  0.42161639  0.30008032  0.68073850    -0.18800
C365        C  0.40940683  0.27402778  0.66928626    -0.07300
C366        C  0.38044396  0.26094469  0.66222386    -0.03400
C367        C  0.36391686  0.27436999  0.66708330    -0.08700
C368        C  0.37618831  0.30042289  0.67852955    -0.16300
H369        H  0.43093308  0.42837226  0.75526480     0.11800
H370        H  0.40570512  0.38234381  0.73535418     0.11100
H371        H  0.48503279  0.40513662  0.70195115     0.11000
H372        H  0.01031946  0.45071473  0.72212356     0.11600
H373        H  0.44401855  0.30995553  0.68591112     0.11600
H374        H  0.42273046  0.26430075  0.66580580     0.11600
H375        H  0.34158317  0.26491932  0.66186911     0.11700
H376        H  0.36320574  0.31055416  0.68197271     0.10600
C377        C  0.07774437  0.29084976  0.06626379    -0.03200
C378        C  0.06445597  0.26163251  0.05954149    -0.09000
C379        C  0.04220866  0.25110658  0.04453922    -0.16700
C380        C  0.03298224  0.26960435  0.03607676     0.25500
C381        C  0.04573600  0.29856514  0.04287336    -0.18300
C382        C  0.06796878  0.30914858  0.05789435    -0.07200
C383        C  0.01073201  0.25892733  0.02018406    -0.13700
C384        C  0.49214163  0.24953699  0.00681124    -0.13400
C385        C  0.46970334  0.23767378  0.99106283     0.25400
C386        C  0.45763177  0.25419976  0.98351426    -0.18800
C387        C  0.43513002  0.24227139  0.96871024    -0.07300
C388        C  0.42442553  0.21361229  0.96127997    -0.03400
C389        C  0.43704031  0.19734912  0.96874603    -0.08700
C390        C  0.45952555  0.20933076  0.98356079    -0.16300
H391        H  0.07150040  0.24700445  0.06564268     0.11800
H392        H  0.03242073  0.22863074  0.03937247     0.11100
H393        H  0.03871421  0.31304104  0.03640315     0.11000
H394        H  0.07780452  0.33176852  0.06267792     0.11600
H395        H  0.46540017  0.27618158  0.98922827     0.11600
H396        H  0.42591031  0.25537687  0.96328243     0.11600
H397        H  0.42928824  0.17523598  0.96337373     0.11700
H398        H  0.46876594  0.19638211  0.98932603     0.10600
C399        C  0.29184840  0.07637777  0.96012057    -0.03200
C400        C  0.26305682  0.06441325  0.96738532    -0.09000
C401        C  0.25203386  0.04214159  0.98243897    -0.16700
C402        C  0.26957325  0.03149620  0.99040604     0.25500
C403        C  0.29804418  0.04282190  0.98300944    -0.18300
C404        C  0.30914636  0.06513012  0.96794742    -0.07200
C405        C  0.25849347  0.00938495  0.00648714    -0.13700
C406        C  0.24897274  0.49103332  0.02009018    -0.13400
C407        C  0.23733982  0.46891939  0.03615743     0.25400
C408        C  0.25519739  0.45986615  0.04591571    -0.18800
C409        C  0.24362803  0.43754216  0.06093991    -0.07300
C410        C  0.21402214  0.42406020  0.06642097    -0.03400
C411        C  0.19638544  0.43375080  0.05682466    -0.08700
C412        C  0.20799000  0.45600164  0.04175053    -0.16300
H413        H  0.24917158  0.07258364  0.96171963     0.11800
H414        H  0.22994982  0.03348413  0.98806006     0.11100
H415        H  0.31177481  0.03467556  0.98907869     0.11000
H416        H  0.33138929  0.07387148  0.96270525     0.11600
H417        H  0.27797007  0.46979472  0.04171090     0.11600
H418        H  0.25777302  0.43060516  0.06805612     0.11600
H419        H  0.17348529  0.42372870  0.06061373     0.11700
H420        H  0.19399368  0.46286993  0.03426762     0.10600
C421        C  0.28610807  0.20929053  0.95921219    -0.03200
C422        C  0.30032453  0.23924169  0.96402250    -0.09000
C423        C  0.28819340  0.25014563  0.97847902    -0.16700
C424        C  0.26178100  0.23128940  0.98834885     0.25500
C425        C  0.24719609  0.20155000  0.98339870    -0.18300
C426        C  0.25922310  0.19059799  0.96887357    -0.07200
C427        C  0.25015264  0.24236563  0.00401895    -0.13700
C428        C  0.24106003  0.25189551  0.01745340    -0.13400
C429        C  0.23061999  0.26355279  0.03356952     0.25400
C430        C  0.20168541  0.24776503  0.04025090    -0.18800
C431        C  0.19137131  0.25933496  0.05562210    -0.07300
C432        C  0.20989680  0.28693611  0.06448131    -0.03400
C433        C  0.23906410  0.30248067  0.05783047    -0.08700
C434        C  0.24933492  0.29082339  0.04247962    -0.16300
H435        H  0.32098905  0.25420772  0.95681011     0.11800
H436        H  0.29962755  0.27321600  0.98218961     0.11100
H437        H  0.22674481  0.18676940  0.99098200     0.11000
H438        H  0.24778749  0.16742380  0.96556979     0.11600
H439        H  0.18703176  0.22662195  0.03345602     0.11600
H440        H  0.16878018  0.24684680  0.06031975     0.11600
H441        H  0.25387206  0.32377322  0.06431050     0.11700
H442        H  0.27180167  0.30318886  0.03743073     0.10600
C443        C  0.38368810  0.12195029  0.86428409    -0.03200
C444        C  0.38024547  0.11995935  0.84218332    -0.09000
C445        C  0.39246858  0.10658952  0.83005882    -0.16700
C446        C  0.40833337  0.09514622  0.83985488     0.25500
C447        C  0.41207712  0.09729272  0.86177149    -0.18300
C448        C  0.39985388  0.11054076  0.87390342    -0.07200
C449        C  0.42071738  0.08099831  0.82763111    -0.13700
C450        C  0.43162955  0.06891247  0.81833160    -0.13400
C451        C  0.44530502  0.05464103  0.80786676     0.25400
C452        C  0.47439045  0.06322734  0.81217489    -0.18800
C453        C  0.48799239  0.04997810  0.80163876    -0.07300
C454        C  0.47271331  0.02815579  0.78659419    -0.03400
C455        C  0.44327483  0.01900088  0.78279226    -0.08700
C456        C  0.42968102  0.03225740  0.79331691    -0.16300
H457        H  0.36789813  0.12846780  0.83429025     0.11800
H458        H  0.38943658  0.10506498  0.81308950     0.11100
H459        H  0.42435598  0.08857885  0.86952276     0.11000
H460        H  0.40301908  0.11175579  0.89084853     0.11600
H461        H  0.48667800  0.08046150  0.82344942     0.11600
H462        H  0.01067085  0.05750642  0.80468201     0.11600
H463        H  0.43101168  0.00197472  0.77137752     0.11700
H464        H  0.40712190  0.02528068  0.78994161     0.10600
C465        C  0.06120197  0.02713874  0.78653682    -0.03200
C466        C  0.06718037  0.04700504  0.80305470    -0.09000
C467        C  0.09394909  0.05944954  0.81351955    -0.16700
C468        C  0.11486679  0.05190875  0.80770930     0.25500
C469        C  0.10856000  0.03118607  0.79183677    -0.18300
C470        C  0.08181026  0.01872512  0.78140255    -0.07200
C471        C  0.14284380  0.06567165  0.81791117    -0.13700
C472        C  0.16588658  0.07753464  0.82699533    -0.13400
C473        C  0.19230737  0.09166484  0.83916498     0.25400
C474        C  0.21951177  0.10292213  0.82939281    -0.18800
C475        C  0.24498469  0.11660680  0.84151012    -0.07300
C476        C  0.24346597  0.11905418  0.86355788    -0.03400
C477        C  0.21598790  0.10770836  0.87314238    -0.08700
C478        C  0.19066778  0.09419144  0.86102879    -0.16300
H479        H  0.05164304  0.05366364  0.80737419     0.11800
H480        H  0.09851821  0.07530702  0.82590080     0.11100
H481        H  0.12443743  0.02495323  0.78733713     0.11000
H482        H  0.07741887  0.00298167  0.76897495     0.11600
H483        H  0.22103081  0.10109425  0.81245442     0.11600
H484        H  0.26578710  0.12504618  0.83366906     0.11600
H485        H  0.21399817  0.10930671  0.89004675     0.11700
H486        H  0.16975530  0.08564683  0.86874980     0.10600
C487        C  0.47599151  0.44384929  0.78777513    -0.03200
C488        C  0.45591979  0.43968319  0.80372790    -0.09000
C489        C  0.44239817  0.41352703  0.81514703    -0.16700
C490        C  0.44906946  0.39148598  0.81083208     0.25500
C491        C  0.46971704  0.39593111  0.79535281    -0.18300
C492        C  0.48317286  0.42199414  0.78392907    -0.07200
C493        C  0.43462529  0.36420495  0.82209859    -0.13700
C494        C  0.42279031  0.34128073  0.83145352    -0.13400
C495        C  0.40912985  0.31427197  0.84308350     0.25400
C496        C  0.41229678  0.31467780  0.86502165    -0.18800
C497        C  0.39910994  0.28863643  0.87647117    -0.07300
C498        C  0.38257896  0.26169097  0.86612611    -0.03400
C499        C  0.37959979  0.26145044  0.84403190    -0.08700
C500        C  0.39276627  0.28761379  0.83259747    -0.16300
H501        H  0.45010849  0.45628788  0.80689017     0.11800
H502        H  0.42651405  0.41035354  0.82714164     0.11100
H503        H  0.47520544  0.37914306  0.79197111     0.11000
H504        H  0.99894122  0.42499291  0.77189161     0.11600
H505        H  0.42496132  0.33515388  0.87330045     0.11600
H506        H  0.40196910  0.28963936  0.89344550     0.11600
H507        H  0.36699067  0.24110607  0.83561181     0.11700
H508        H  0.39017862  0.28705048  0.81560037     0.10600
Zn509      Zn  0.35636532  0.64763434  0.92150650     1.49700
Zn510      Zn  0.29533229  0.64578877  0.92101083     1.49400
Zn511      Zn  0.35387225  0.70665983  0.92202196     1.49100
Zn512      Zn  0.33612952  0.66775861  0.87986739     1.49500
O513        O  0.33545428  0.66692446  0.91096169    -1.84000
O514        O  0.33057044  0.61283751  0.93963373    -0.74600
O515        O  0.28545290  0.67097801  0.93905531    -0.74500
O516        O  0.38756542  0.71508878  0.94087976    -0.74000
O517        O  0.28814867  0.61161680  0.93905321    -0.74700
O518        O  0.39025000  0.67453576  0.93985095    -0.74300
O519        O  0.32614254  0.71374398  0.93929243    -0.74800
O520        O  0.35658142  0.70963078  0.86907066    -0.74200
O521        O  0.26745627  0.63118638  0.89671914    -0.75000
O522        O  0.36901655  0.73585682  0.89856472    -0.74400
O523        O  0.29507879  0.64649320  0.86796233    -0.74900
O524        O  0.35746345  0.64760125  0.86850911    -0.74800
O525        O  0.37135326  0.63399657  0.89743615    -0.74500
C526        C  0.30410916  0.60140967  0.94534728     0.77200
C527        C  0.29986646  0.69744705  0.94498509     0.77700
C528        C  0.39957336  0.70044362  0.94646296     0.76700
C529        C  0.36861717  0.73423465  0.87850287     0.77100
C530        C  0.27011803  0.63301792  0.87670625     0.78200
C531        C  0.37017126  0.63529544  0.87739086     0.77300
Zn532      Zn  0.33690831  0.66776965  0.58541704     1.49700
Zn533      Zn  0.37639886  0.68818420  0.62651707     1.49400
Zn534      Zn  0.31554213  0.68807172  0.62511102     1.49100
Zn535      Zn  0.31580256  0.62727248  0.62593117     1.49500
O536        O  0.33620364  0.66783412  0.61599319    -1.84000
O537        O  0.37717161  0.68839350  0.57432511    -0.74600
O538        O  0.38339255  0.72266537  0.64454320    -0.74500
O539        O  0.30164916  0.70243179  0.60037920    -0.74000
O540        O  0.40572397  0.70360206  0.60250264    -0.74700
O541        O  0.31658042  0.68726007  0.57300666    -0.74300
O542        O  0.34163154  0.72292106  0.64293112    -0.74800
O543        O  0.28075237  0.61932275  0.64342195    -0.74200
O544        O  0.38455114  0.66073030  0.64368013    -0.75000
O545        O  0.28038261  0.66118345  0.64237317    -0.74400
O546        O  0.34264429  0.61889248  0.64334869    -0.74900
O547        O  0.30156575  0.59847407  0.60161276    -0.74800
O548        O  0.31759559  0.62764500  0.57374060    -0.74500
C549        C  0.40234440  0.70163439  0.58252684     0.77200
C550        C  0.36779590  0.73400466  0.64932278     0.77700
C551        C  0.30370307  0.70008952  0.58051319     0.76700
C552        C  0.26922884  0.63472063  0.64831843     0.77100
C553        C  0.36922789  0.63393352  0.64881906     0.78200
C554        C  0.30425992  0.60223171  0.58169014     0.77300
C555        C  0.00372560  0.50137342  0.78384380     0.45600
H556        H  0.00393111  0.50165121  0.80139301    -0.03500
C557        C  0.00316524  0.50034058  0.74262386     0.45600
H558        H  0.00283070  0.49997352  0.72507607    -0.03500
C559        C  0.48791829  0.51623004  0.77386710    -0.17200
C560        C  0.03421454  0.51628037  0.77383684    -0.16900
C561        C  0.48851489  0.97044968  0.77447400    -0.17300
C562        C  0.48782961  0.51577806  0.75214907    -0.17300
C563        C  0.03388057  0.51630161  0.75209864    -0.16800
C564        C  0.48806466  0.96994657  0.75277753    -0.17100
Zn565      Zn  0.14786795  0.85435541  0.42245297     1.49700
Zn566      Zn  0.20772963  0.85423658  0.42222772     1.49400
Zn567      Zn  0.14820919  0.79416786  0.42217259     1.49100
Zn568      Zn  0.16761373  0.83421296  0.38058329     1.49500
O569        O  0.16782324  0.83424600  0.41168704    -1.84000
O570        O  0.17390181  0.88825721  0.44109185    -0.74600
O571        O  0.21629137  0.82785763  0.43995276    -0.74500
O572        O  0.11485121  0.78650279  0.44118647    -0.74000
O573        O  0.21557831  0.88800775  0.44095455    -0.74700
O574        O  0.11386946  0.82798056  0.44076273    -0.74300
O575        O  0.17478318  0.78586440  0.43981480    -0.74800
O576        O  0.14646961  0.79253643  0.36913327    -0.74200
O577        O  0.23604475  0.86933262  0.39833526    -0.75000
O578        O  0.13305444  0.76549903  0.39826291    -0.74400
O579        O  0.20909134  0.85522019  0.36921456    -0.74900
O580        O  0.14708695  0.85546173  0.36955196    -0.74800
O581        O  0.13382296  0.86928763  0.39867373    -0.74500
C582        C  0.20004553  0.89867500  0.44727475     0.77200
C583        C  0.20100547  0.80144891  0.44584440     0.77700
C584        C  0.10393202  0.80194123  0.44727683     0.76700
C585        C  0.13386748  0.76765042  0.37820795     0.77100
C586        C  0.23386308  0.86820125  0.37829647     0.78200
C587        C  0.13497761  0.86825007  0.37861856     0.77300
Zn588      Zn  0.20762664  0.85268332  0.10483213     1.49700
Zn589      Zn  0.14698705  0.79364718  0.10484866     1.49400
Zn590      Zn  0.16779228  0.83345716  0.14672315     1.49100
Zn591      Zn  0.14849869  0.85445015  0.10522212     1.49500
O592        O  0.16777009  0.83357371  0.11559080    -1.84000
O593        O  0.21476004  0.82596210  0.08616135    -0.74600
O594        O  0.13330020  0.76491126  0.12861107    -0.74500
O595        O  0.20935000  0.85420994  0.15784180    -0.74000
O596        O  0.17219322  0.78507888  0.08591061    -0.74700
O597        O  0.23622545  0.86617369  0.12868903    -0.74300
O598        O  0.14761270  0.79170942  0.15783934    -0.74800
O599        O  0.13417318  0.86858687  0.12921543    -0.74200
O600        O  0.11246866  0.78624774  0.08723569    -0.75000
O601        O  0.14667564  0.85402429  0.15832841    -0.74400
O602        O  0.11429342  0.82907137  0.08686283    -0.74900
O603        O  0.17509473  0.88876179  0.08724596    -0.74800
O604        O  0.21633489  0.88759984  0.08698953    -0.74500
C605        C  0.19845291  0.79992697  0.07978779     0.77200
C606        C  0.13501676  0.76692221  0.14865444     0.77700
C607        C  0.23409703  0.86567419  0.14873783     0.76700
C608        C  0.13463623  0.86690299  0.14925745     0.77100
C609        C  0.10261975  0.80257910  0.08104329     0.78200
C610        C  0.20124969  0.89901799  0.08114815     0.77300
C611        C  0.99993970  0.50030818  0.28419707     0.45600
H612        H  0.00005546  0.50057264  0.30174675    -0.03500
C613        C  0.99970073  0.50001694  0.24294231     0.45600
H614        H  0.99955473  0.49974019  0.22539153    -0.05700
C615        C  0.01551450  0.98510639  0.27443113    -0.17200
C616        C  0.46927614  0.98504528  0.27452025    -0.16900
C617        C  0.01492287  0.53093267  0.27430569    -0.17300
C618        C  0.01504202  0.98465085  0.25271261    -0.17300
C619        C  0.46919682  0.98461831  0.25282556    -0.16800
C620        C  0.01516784  0.53079166  0.25258160    -0.17100
C621        C  0.03056987  0.55755967  0.23953448    -0.03200
C622        C  0.01599564  0.56309149  0.22327713    -0.09000
C623        C  0.02989251  0.58941628  0.21212835    -0.16700
C624        C  0.05862677  0.61030161  0.21697685     0.25500
C625        C  0.07361093  0.60448561  0.23269446    -0.18300
C626        C  0.05970246  0.57821267  0.24386134    -0.07200
C627        C  0.07260909  0.63779770  0.20600107    -0.13700
C628        C  0.08402278  0.66072880  0.19666639    -0.13400
C629        C  0.09705858  0.68753484  0.18482103     0.25400
C630        C  0.11219677  0.71449402  0.19512362    -0.18800
C631        C  0.12460327  0.74044948  0.18344498    -0.07300
C632        C  0.12201028  0.73969087  0.16129937    -0.03400
C633        C  0.10679470  0.71242587  0.15115052    -0.08700
C634        C  0.09441884  0.68659930  0.16283266    -0.16300
H635        H  0.49367761  0.54750995  0.21960826     0.11800
H636        H  0.01812508  0.59363113  0.19992193     0.11100
H637        H  0.09591930  0.62037132  0.23647025     0.11000
H638        H  0.07153269  0.57414072  0.25609013     0.11600
H639        H  0.11437355  0.71545375  0.21216190     0.11600
H640        H  0.13621725  0.76104341  0.19172810     0.11600
H641        H  0.10434953  0.71098806  0.13414085     0.11700
H642        H  0.08274076  0.66587265  0.15469537     0.10600
C643        C  0.44235009  0.96914326  0.24001648    -0.03200
C644        C  0.42309948  0.93925510  0.24324017    -0.09000
C645        C  0.39677286  0.92502540  0.23222463    -0.16700
C646        C  0.38945268  0.94056653  0.21791793     0.25500
C647        C  0.40879451  0.97024945  0.21442592    -0.18300
C648        C  0.43515484  0.98443783  0.22537582    -0.07200
C649        C  0.36199110  0.92630476  0.20700718    -0.13700
C650        C  0.33925048  0.91519089  0.19752214    -0.13400
C651        C  0.31272189  0.90272703  0.18545707     0.25400
C652        C  0.31391540  0.90200747  0.16341876    -0.18800
C653        C  0.28835338  0.89008464  0.15153629    -0.07300
C654        C  0.26110578  0.87862070  0.16153189    -0.03400
C655        C  0.26010460  0.87954510  0.18372004    -0.08700
C656        C  0.28577998  0.89155072  0.19559353    -0.16300
H657        H  0.42834320  0.92708804  0.25447239     0.11800
H658        H  0.38202396  0.90204044  0.23502891     0.11100
H659        H  0.40332479  0.98251534  0.20344424     0.11000
H660        H  0.44940145  0.50749055  0.22293034     0.11600
H661        H  0.33463591  0.91066147  0.15539772     0.11600
H662        H  0.28997239  0.88976536  0.13449927     0.11600
H663        H  0.23952423  0.87098610  0.19189749     0.11700
H664        H  0.28461469  0.89209368  0.21265837     0.10600
C665        C  0.12074967  0.88027214  0.16198114    -0.03200
C666        C  0.12071728  0.87946717  0.18420872    -0.09000
C667        C  0.10750083  0.89226964  0.19589710    -0.16700
C668        C  0.09416813  0.90599749  0.18552884     0.25500
C669        C  0.09407096  0.90681869  0.16346410    -0.18300
C670        C  0.10721835  0.89409690  0.15178491    -0.07200
C671        C  0.08048379  0.91926021  0.19733245    -0.13700
C672        C  0.06864596  0.93052881  0.20652646    -0.13400
C673        C  0.05421681  0.94377445  0.21739920     0.25400
C674        C  0.06099807  0.97240071  0.21262866    -0.18800
C675        C  0.04753404  0.98545177  0.22366874    -0.07300
C676        C  0.02739070  0.97006420  0.23970380    -0.03400
C677        C  0.02001991  0.94107382  0.24395263    -0.08700
C678        C  0.03343771  0.92806053  0.23292121    -0.16300
H679        H  0.13089418  0.86899433  0.19254728     0.11800
H680        H  0.10768852  0.89146625  0.21299155     0.11100
H681        H  0.08381237  0.91732637  0.15525052     0.11000
H682        H  0.10675352  0.89512308  0.13471694     0.11600
H683        H  0.07694630  0.98474012  0.20058054     0.11600
H684        H  0.05347260  0.00780684  0.22016816     0.11600
H685        H  0.00418794  0.92868136  0.25604785     0.11700
H686        H  0.02782639  0.90585299  0.23665211     0.10600
C687        C  0.44245630  0.97370492  0.28745494    -0.03200
C688        C  0.42166889  0.98208572  0.28292316    -0.09000
C689        C  0.39539979  0.96977494  0.29399560    -0.16700
C690        C  0.38971668  0.94912745  0.30982717     0.25500
C691        C  0.41072489  0.94140644  0.31489028    -0.18300
C692        C  0.43702087  0.95375003  0.30382175    -0.07200
C693        C  0.36221467  0.93554271  0.32066988    -0.13700
C694        C  0.33933791  0.92384255  0.32996541    -0.13400
C695        C  0.31268411  0.90990318  0.34186442     0.25400
C696        C  0.31374129  0.91115898  0.36391460    -0.18800
C697        C  0.28809532  0.89757326  0.37567667    -0.07300
C698        C  0.26088840  0.88246646  0.36555057    -0.03400
C699        C  0.25999702  0.88133023  0.34333944    -0.08700
C700        C  0.28577840  0.89496671  0.33157668    -0.16300
H701        H  0.42565067  0.99790314  0.27063122     0.11800
H702        H  0.37942013  0.97611048  0.29005425     0.11100
H703        H  0.40661010  0.92553947  0.32718361     0.11000
H704        H  0.45263319  0.94702117  0.30762910     0.11600
H705        H  0.33442879  0.92263287  0.37204204     0.11600
H706        H  0.28963335  0.89895000  0.39273608     0.11600
H707        H  0.23943931  0.86990016  0.33507072     0.11700
H708        H  0.28472954  0.89383824  0.31448976     0.10600
C709        C  0.02685020  0.55791114  0.28720363    -0.03200
C710        C  0.01849734  0.57887050  0.28311217    -0.09000
C711        C  0.03128139  0.60526037  0.29417987    -0.16700
C712        C  0.05248314  0.61097007  0.30951889     0.25500
C713        C  0.06033280  0.58981310  0.31404714    -0.18300
C714        C  0.04745698  0.56332701  0.30301965    -0.07200
C715        C  0.06638044  0.63861030  0.32043164    -0.13700
C716        C  0.07817755  0.66159894  0.32975435    -0.13400
C717        C  0.09222361  0.68841048  0.34168731     0.25400
C718        C  0.09277582  0.68732650  0.36373980    -0.18800
C719        C  0.10636706  0.71308082  0.37551536    -0.07300
C720        C  0.11970443  0.74047757  0.36542789    -0.03400
C721        C  0.11911166  0.74140654  0.34321588    -0.08700
C722        C  0.10543941  0.71551955  0.33143752    -0.16300
H723        H  0.00234352  0.57492089  0.27114629     0.11800
H724        H  0.02486183  0.62132137  0.29061443     0.11100
H725        H  0.07664988  0.59393451  0.32591976     0.11000
H726        H  0.05417707  0.54744187  0.30637109     0.11600
H727        H  0.08267925  0.66652271  0.37186730     0.11600
H728        H  0.10639140  0.71147626  0.39256558     0.11600
H729        H  0.12913639  0.76208808  0.33495302     0.11700
H730        H  0.10518145  0.71665282  0.31435957     0.10600
C731        C  0.03113065  0.97376322  0.28731564    -0.03200
C732        C  0.06044061  0.98274214  0.28311812    -0.09000
C733        C  0.07446356  0.97016957  0.29396006    -0.16700
C734        C  0.05940836  0.94866627  0.30922519     0.25500
C735        C  0.03045399  0.94022202  0.31387022    -0.18300
C736        C  0.01642842  0.95278111  0.30301481    -0.07200
C737        C  0.07350307  0.93508355  0.32004021    -0.13700
C738        C  0.08474345  0.92344780  0.32950015    -0.13400
C739        C  0.09751135  0.90960542  0.34163918     0.25400
C740        C  0.09762292  0.91108107  0.36369204    -0.18800
C741        C  0.10975633  0.89759056  0.37566332    -0.07300
C742        C  0.12202749  0.88237979  0.36574348    -0.03400
C743        C  0.12184256  0.88101465  0.34353278    -0.08700
C744        C  0.10962959  0.89453526  0.33157042    -0.16300
H745        H  0.07228486  0.99913321  0.27119461     0.11800
H746        H  0.09691410  0.97700141  0.29029645     0.11100
H747        H  0.01859511  0.92363601  0.32567654     0.11000
H748        H  0.49388338  0.94536552  0.30638749     0.11600
H749        H  0.08829271  0.92265926  0.37165810     0.11600
H750        H  0.10954758  0.89913862  0.39270983     0.11600
H751        H  0.13108758  0.86949272  0.33540484     0.11700
H752        H  0.10962397  0.89321820  0.31449385     0.10600
C753        C  0.29162222  0.57691095  0.56723395    -0.03200
C754        C  0.29305134  0.58150800  0.54525901    -0.09000
C755        C  0.28100823  0.55796237  0.53136328    -0.16700
C756        C  0.26740111  0.52947149  0.53915251     0.25500
C757        C  0.26588501  0.52452896  0.56097238    -0.18300
C758        C  0.27792472  0.54815096  0.57498332    -0.07200
C759        C  0.25506053  0.50557291  0.52451924    -0.13700
C760        C  0.24533483  0.98689977  0.51116676    -0.13400
C761        C  0.23424489  0.96550810  0.49461561     0.25400
C762        C  0.20550754  0.95393331  0.48777865    -0.18800
C763        C  0.19456529  0.93275482  0.47191827    -0.07300
C764        C  0.21227753  0.92286449  0.46273522    -0.03400
C765        C  0.24133849  0.93511312  0.46943310    -0.08700
C766        C  0.25222990  0.95631927  0.48526538    -0.16300
H767        H  0.30337479  0.60334081  0.53873737     0.11800
H768        H  0.28227493  0.56199669  0.51450623     0.11100
H769        H  0.25538337  0.50248590  0.56713329     0.11000
H770        H  0.27651346  0.54392682  0.59180266     0.11600
H771        H  0.19147485  0.96105450  0.49485455     0.11600
H772        H  0.17209482  0.92372874  0.46716112     0.11600
H773        H  0.25554869  0.92800713  0.46267929     0.11700
H774        H  0.27457942  0.96532074  0.49036420     0.10600
C775        C  0.08011602  0.78984804  0.46296513    -0.03200
C776        C  0.06726424  0.80623509  0.46965802    -0.09000
C777        C  0.04659244  0.79590516  0.48581829    -0.16700
C778        C  0.03857088  0.76915880  0.49550660     0.25500
C779        C  0.05073307  0.75239444  0.48866992    -0.18300
C780        C  0.07136601  0.76263668  0.47248108    -0.07200
C781        C  0.01769474  0.75885076  0.51235801    -0.13700
C782        C  0.49926843  0.74989958  0.52584782    -0.13400
C783        C  0.47536598  0.73830044  0.54041241     0.25400
C784        C  0.44706271  0.72454572  0.53247425    -0.18800
C785        C  0.42346517  0.71284186  0.54624665    -0.07300
C786        C  0.42779824  0.71469927  0.56825847    -0.03400
C787        C  0.45637891  0.72876458  0.57617141    -0.08700
C788        C  0.48007486  0.74050612  0.56227301    -0.16300
H789        H  0.07351432  0.82724903  0.46266133     0.11800
H790        H  0.03710366  0.80892242  0.49091110     0.11100
H791        H  0.04450182  0.73156205  0.49599911     0.11000
H792        H  0.08090362  0.74953473  0.46774976     0.11600
H793        H  0.44320969  0.72277316  0.51558653     0.11600
H794        H  0.40178604  0.70223404  0.53958532     0.11600
H795        H  0.46040029  0.73054971  0.59302156     0.11700
H796        H  0.50198080  0.75117882  0.56854721     0.10600
C797        C  0.29098865  0.71226746  0.56561539    -0.03200
C798        C  0.27936066  0.72956778  0.57273567    -0.09000
C799        C  0.26769190  0.74108601  0.55830699    -0.16700
C800        C  0.26745737  0.73532987  0.53668931     0.25500
C801        C  0.27884795  0.71806391  0.52952792    -0.18300
C802        C  0.29055409  0.70664122  0.54384318    -0.07200
C803        C  0.25573598  0.74710269  0.52165291    -0.13700
C804        C  0.24639541  0.75637706  0.50821816    -0.13400
C805        C  0.23551297  0.76719173  0.49182651     0.25400
C806        C  0.20754066  0.74951505  0.48374731    -0.18800
C807        C  0.19659556  0.76033448  0.46827399    -0.07300
C808        C  0.21354183  0.78903111  0.46070166    -0.03400
C809        C  0.24192667  0.80636947  0.46856240    -0.08700
C810        C  0.25280787  0.79548981  0.48403628    -0.16300
H811        H  0.27943882  0.73432197  0.58937858     0.11800
H812        H  0.25892393  0.75448264  0.56398773     0.11100
H813        H  0.27873917  0.71346386  0.51283755     0.11000
H814        H  0.29922545  0.69333502  0.53781366     0.11600
H815        H  0.19404538  0.72751175  0.48961069     0.11600
H816        H  0.17466757  0.74643030  0.46257242     0.11600
H817        H  0.25552519  0.82854598  0.46309127     0.11700
H818        H  0.27455681  0.80928345  0.49012624     0.10600
C819        C  0.47471115  0.52915963  0.73872228    -0.03200
C820        C  0.45523316  0.51288100  0.72256439    -0.09000
C821        C  0.44186154  0.52508788  0.71046982    -0.16700
C822        C  0.44807505  0.55373223  0.71433810     0.25500
C823        C  0.46798155  0.57023343  0.73012169    -0.18300
C824        C  0.48133579  0.55807594  0.74218931    -0.07200
C825        C  0.43388739  0.56625373  0.70237909    -0.13700
C826        C  0.42234616  0.57761186  0.69297401    -0.13400
C827        C  0.40890811  0.59184498  0.68218379     0.25400
C828        C  0.42537458  0.62140142  0.67685901    -0.18800
C829        C  0.41240518  0.63526854  0.66630607    -0.07300
C830        C  0.38272897  0.61970639  0.66092461    -0.03400
C831        C  0.36631322  0.59004407  0.66653190    -0.08700
C832        C  0.37933693  0.57624235  0.67708751    -0.16300
H833        H  0.44990668  0.99056065  0.71965373     0.11800
H834        H  0.42652210  0.51214117  0.69826507     0.11100
H835        H  0.47305918  0.59245140  0.73317816     0.11000
H836        H  0.99671492  0.57116445  0.75432174     0.11600
H837        H  0.44827861  0.63370447  0.68078047     0.11600
H838        H  0.42568712  0.65807858  0.66218593     0.11600
H839        H  0.34344847  0.57739907  0.66260714     0.11700
H840        H  0.36636763  0.55337316  0.68118697     0.10600
C841        C  0.06037261  0.53159802  0.73876071    -0.03200
C842        C  0.06419009  0.51755445  0.72126889    -0.09000
C843        C  0.09006026  0.53106617  0.70970182    -0.16700
C844        C  0.11225314  0.55893345  0.71534993     0.25500
C845        C  0.10815732  0.57359891  0.73223065    -0.18300
C846        C  0.08227142  0.56011390  0.74376779    -0.07200
C847        C  0.13938351  0.57222901  0.70406359    -0.13700
C848        C  0.16221150  0.58312631  0.69473326    -0.13400
C849        C  0.18939338  0.59615727  0.68351255     0.25400
C850        C  0.20297655  0.62561063  0.67782168    -0.18800
C851        C  0.22911367  0.63823619  0.66658233    -0.07300
C852        C  0.24205332  0.62153098  0.66087921    -0.03400
C853        C  0.22834183  0.59196708  0.66684501    -0.08700
C854        C  0.20216927  0.57938584  0.67808273    -0.16300
H855        H  0.04757548  0.99588102  0.71685949     0.11800
H856        H  0.09291693  0.51961134  0.69655164     0.11100
H857        H  0.12507058  0.59529954  0.73661414     0.11000
H858        H  0.07951113  0.57177229  0.75680863     0.11600
H859        H  0.19327295  0.63878677  0.68196020     0.11600
H860        H  0.23906012  0.66103065  0.66224037     0.11600
H861        H  0.23767766  0.57848486  0.66267754     0.11700
H862        H  0.19181702  0.55654889  0.68242114     0.10600
C863        C  0.47250776  0.94295975  0.74009089    -0.03200
C864        C  0.44284467  0.92346060  0.74361981    -0.09000
C865        C  0.42848913  0.89734845  0.73229123    -0.16700
C866        C  0.44363731  0.89060509  0.71727825     0.25500
C867        C  0.47307412  0.91019713  0.71347544    -0.18300
C868        C  0.48742355  0.93627333  0.72481675    -0.07200
C869        C  0.42925023  0.86335727  0.70607164    -0.13700
C870        C  0.41791159  0.84051277  0.69667097    -0.13400
C871        C  0.40507444  0.81338195  0.68529517     0.25400
C872        C  0.42160736  0.80007548  0.68074655    -0.18800
C873        C  0.40939913  0.77402389  0.66929374    -0.07300
C874        C  0.38043866  0.76094371  0.66222677    -0.03400
C875        C  0.36391217  0.77437069  0.66708271    -0.08700
C876        C  0.37618255  0.80042297  0.67852958    -0.16300
H877        H  0.43092616  0.92837841  0.75526030     0.11800
H878        H  0.40569706  0.88234875  0.73535075     0.11100
H879        H  0.48502495  0.90513175  0.70195331     0.11000
H880        H  0.01031413  0.95071194  0.72212404     0.11600
H881        H  0.44400785  0.80994852  0.68592235     0.11600
H882        H  0.42272213  0.76429540  0.66581631     0.11600
H883        H  0.34158012  0.76492219  0.66186503     0.11700
H884        H  0.36320091  0.81055611  0.68196971     0.10600
C885        C  0.07774704  0.79085321  0.06626197    -0.03200
C886        C  0.06445780  0.76163566  0.05954063    -0.09000
C887        C  0.04221297  0.75111087  0.04453669    -0.16700
C888        C  0.03298966  0.76960959  0.03607154     0.25500
C889        C  0.04574425  0.79857088  0.04286698    -0.18300
C890        C  0.06797478  0.80915336  0.05788979    -0.07200
C891        C  0.01074059  0.75893250  0.02017814    -0.13700
C892        C  0.49214943  0.74954124  0.00680586    -0.13400
C893        C  0.46970873  0.73767658  0.99105946     0.25400
C894        C  0.45763783  0.75420298  0.98351063    -0.18800
C895        C  0.43513335  0.74227275  0.96870891    -0.07300
C896        C  0.42442543  0.71361208  0.96128122    -0.03400
C897        C  0.43703931  0.69734854  0.96874784    -0.08700
C898        C  0.45952728  0.70933158  0.98356032    -0.16300
H899        H  0.07149970  0.74700652  0.06564375     0.11800
H900        H  0.03242412  0.72863476  0.03937088     0.11100
H901        H  0.03872479  0.81304772  0.03639476     0.11000
H902        H  0.07781149  0.83177361  0.06267267     0.11600
H903        H  0.46540880  0.77618636  0.98922252     0.11600
H904        H  0.42591441  0.75537845  0.96328054     0.11600
H905        H  0.42928474  0.67523416  0.96337762     0.11700
H906        H  0.46876710  0.69638266  0.98932600     0.10600
C907        C  0.29184072  0.57637791  0.96012059    -0.03200
C908        C  0.26304985  0.56441718  0.96738641    -0.09000
C909        C  0.25202496  0.54214436  0.98243939    -0.16700
C910        C  0.26956165  0.53149435  0.99040432     0.25500
C911        C  0.29803147  0.54281633  0.98300647    -0.18300
C912        C  0.30913560  0.56512550  0.96794539    -0.07200
C913        C  0.25848045  0.50938256  0.00648486    -0.13700
C914        C  0.24898536  0.99103573  0.02009256    -0.13400
C915        C  0.23735008  0.96892143  0.03615963     0.25400
C916        C  0.25520585  0.95986739  0.04591971    -0.18800
C917        C  0.24363378  0.93754293  0.06094352    -0.07300
C918        C  0.21402728  0.92406132  0.06642254    -0.03400
C919        C  0.19639260  0.93375286  0.05682448    -0.08700
C920        C  0.20799960  0.95600401  0.04175072    -0.16300
H921        H  0.24916699  0.57259149  0.96172227     0.11800
H922        H  0.22994169  0.53348960  0.98806164     0.11100
H923        H  0.31175982  0.53466638  0.98907410     0.11000
H924        H  0.33137766  0.57386377  0.96270222     0.11600
H925        H  0.27797911  0.96979552  0.04171663     0.11600
H926        H  0.25777735  0.93060534  0.06806115     0.11600
H927        H  0.17349204  0.92373115  0.06061180     0.11700
H928        H  0.19400455  0.96287278  0.03426645     0.10600
C929        C  0.28610550  0.70929369  0.95921011    -0.03200
C930        C  0.30032170  0.73924460  0.96402212    -0.09000
C931        C  0.28818736  0.75014665  0.97847769    -0.16700
C932        C  0.26177278  0.73128949  0.98834462     0.25500
C933        C  0.24718848  0.70155088  0.98339225    -0.18300
C934        C  0.25921794  0.69060000  0.96886823    -0.07200
C935        C  0.25014218  0.74236346  0.00401479    -0.13700
C936        C  0.24104869  0.75189136  0.01745005    -0.13400
C937        C  0.23060977  0.76354775  0.03356759     0.25400
C938        C  0.20167412  0.74776265  0.04024708    -0.18800
C939        C  0.19136131  0.75933230  0.05561950    -0.07300
C940        C  0.20988933  0.78693063  0.06448172    -0.03400
C941        C  0.23905757  0.80247206  0.05783291    -0.08700
C942        C  0.24932717  0.79081516  0.04248098    -0.16300
H943        H  0.32098815  0.75421140  0.95681209     0.11800
H944        H  0.29962093  0.77321639  0.98219004     0.11100
H945        H  0.22673568  0.68676973  0.99097330     0.11000
H946        H  0.24778231  0.66742599  0.96556285     0.11600
H947        H  0.18701862  0.72662200  0.03344965     0.11600
H948        H  0.16876930  0.74684646  0.06031547     0.11600
H949        H  0.25386736  0.82376226  0.06431537     0.11700
H950        H  0.27179486  0.80317859  0.03743376     0.10600
C951        C  0.38368337  0.62194355  0.86428872    -0.03200
C952        C  0.38024353  0.61995604  0.84218781    -0.09000
C953        C  0.39246502  0.60658502  0.83006313    -0.16700
C954        C  0.40832523  0.59513679  0.83985903     0.25500
C955        C  0.41206596  0.59727953  0.86177582    -0.18300
C956        C  0.39984441  0.61052885  0.87390803    -0.07200
C957        C  0.42070791  0.58098834  0.82763453    -0.13700
C958        C  0.43161897  0.56890280  0.81833333    -0.13400
C959        C  0.44529468  0.55463301  0.80786660     0.25400
C960        C  0.47437235  0.56320174  0.81218831    -0.18800
C961        C  0.48797562  0.54995496  0.80165078    -0.07300
C962        C  0.47270598  0.52815283  0.78659068    -0.03400
C963        C  0.44327331  0.51901330  0.78277580    -0.08700
C964        C  0.42967889  0.53226831  0.79330183    -0.16300
H965        H  0.36789989  0.62846849  0.83429458     0.11800
H966        H  0.38943535  0.60506356  0.81309365     0.11100
H967        H  0.42434128  0.58856186  0.86952708     0.11000
H968        H  0.40300736  0.61174096  0.89085327     0.11600
H969        H  0.48665322  0.58042039  0.82347502     0.11600
H970        H  0.01064695  0.55746726  0.80470754     0.11600
H971        H  0.43101522  0.50200028  0.77135089     0.11700
H972        H  0.40712540  0.52530472  0.78991649     0.10600
C973        C  0.06120171  0.52714907  0.78653947    -0.03200
C974        C  0.06718896  0.54703553  0.80304442    -0.09000
C975        C  0.09395978  0.55948579  0.81350669    -0.16700
C976        C  0.11487102  0.55193135  0.80770659     0.25500
C977        C  0.10855607  0.53119060  0.79184641    -0.18300
C978        C  0.08180424  0.51872420  0.78141448    -0.07200
C979        C  0.14284925  0.56569740  0.81790682    -0.13700
C980        C  0.16589247  0.57756054  0.82699044    -0.13400
C981        C  0.19231286  0.59168810  0.83916069     0.25400
C982        C  0.21951744  0.60294050  0.82938951    -0.18800
C983        C  0.24498943  0.61662037  0.84150795    -0.07300
C984        C  0.24347005  0.61906782  0.86355564    -0.03400
C985        C  0.21599192  0.60772736  0.87313922    -0.08700
C986        C  0.19067232  0.59421511  0.86102455    -0.16300
H987        H  0.05165785  0.55370597  0.80735466     0.11800
H988        H  0.09853562  0.57535813  0.82587782     0.11100
H989        H  0.12442878  0.52494783  0.78735443     0.11000
H990        H  0.07740675  0.50296801  0.76899528     0.11600
H991        H  0.22103731  0.60111220  0.81245120     0.11600
H992        H  0.26579185  0.62505583  0.83366782     0.11600
H993        H  0.21400174  0.60932618  0.89004361     0.11700
H994        H  0.16975953  0.58567403  0.86874470     0.10600
C995        C  0.47598843  0.94384591  0.78777141    -0.03200
C996        C  0.45591818  0.93967913  0.80372548    -0.09000
C997        C  0.44239725  0.91352232  0.81514393    -0.16700
C998        C  0.44906789  0.89148138  0.81082685     0.25500
C999        C  0.46971350  0.89592711  0.79534593    -0.18300
C1000       C  0.48316856  0.92199056  0.78392299    -0.07200
C1001       C  0.43462596  0.86420046  0.82209361    -0.13700
C1002       C  0.42279321  0.84127689  0.83144941    -0.13400
C1003       C  0.40913516  0.81426926  0.84308067     0.25400
C1004       C  0.41229754  0.81467794  0.86501939    -0.18800
C1005       C  0.39911151  0.78863743  0.87646991    -0.07300
C1006       C  0.38258612  0.76169046  0.86612581    -0.03400
C1007       C  0.37961236  0.76144735  0.84403110    -0.08700
C1008       C  0.39277786  0.78760943  0.83259528    -0.16300
H1009       H  0.45010776  0.95628403  0.80688950     0.11800
H1010       H  0.42651455  0.91034850  0.82713987     0.11100
H1011       H  0.47520138  0.87913926  0.79196255     0.11000
H1012       H  0.99893555  0.92499007  0.77188504     0.11600
H1013       H  0.42495730  0.83515537  0.87329781     0.11600
H1014       H  0.40196641  0.78964228  0.89344453     0.11600
H1015       H  0.36700782  0.74110183  0.83561153     0.11700
H1016       H  0.39019392  0.78704391  0.81559771     0.10600
Zn1017     Zn  0.85636766  0.14763486  0.92150344     1.49700
Zn1018     Zn  0.79533277  0.14578557  0.92101101     1.49400
Zn1019     Zn  0.85387165  0.20665776  0.92202052     1.49100
Zn1020     Zn  0.83612700  0.16775773  0.87986541     1.49500
O1021       O  0.83545399  0.16692285  0.91095994    -1.84000
O1022       O  0.83057547  0.11283712  0.93963103    -0.74600
O1023       O  0.78545256  0.17097402  0.93905630    -0.74500
O1024       O  0.88756584  0.21508857  0.94087774    -0.74000
O1025       O  0.78815307  0.11161519  0.93905376    -0.74700
O1026       O  0.89025255  0.17453687  0.93984784    -0.74300
O1027       O  0.82614237  0.21373991  0.93929219    -0.74800
O1028       O  0.85657439  0.20963068  0.86906892    -0.74200
O1029       O  0.76745502  0.13117920  0.89672036    -0.75000
O1030       O  0.86901307  0.23585502  0.89856384    -0.74400
O1031       O  0.79507509  0.14648708  0.86796232    -0.74900
O1032       O  0.85746438  0.14760443  0.86850529    -0.74800
O1033       O  0.87135595  0.13400007  0.89743171    -0.74500
C1034       C  0.80411487  0.10140890  0.94534645     0.77200
C1035       C  0.79986682  0.19744313  0.94498595     0.77700
C1036       C  0.89957476  0.20044423  0.94646058     0.76700
C1037       C  0.86861108  0.23423406  0.87850193     0.77100
C1038       C  0.77011515  0.13300940  0.87670734     0.78200
C1039       C  0.87017385  0.13529985  0.87738647     0.77300
Zn1040     Zn  0.83690578  0.16776652  0.58541581     1.49700
Zn1041     Zn  0.87639788  0.18818062  0.62651520     1.49400
Zn1042     Zn  0.81554357  0.18807201  0.62511049     1.49100
Zn1043     Zn  0.81579884  0.12727033  0.62593048     1.49500
O1044       O  0.83620226  0.16783193  0.61599209    -1.84000
O1045       O  0.87716888  0.18838920  0.57432295    -0.74600
O1046       O  0.88339497  0.22266401  0.64454073    -0.74500
O1047       O  0.80165308  0.20243410  0.60037895    -0.74000
O1048       O  0.90572204  0.20359650  0.60250010    -0.74700
O1049       O  0.81657913  0.18725853  0.57300562    -0.74300
O1050       O  0.84163454  0.22292099  0.64293037    -0.74800
O1051       O  0.78074838  0.11932277  0.64342018    -0.74200
O1052       O  0.88454809  0.16072507  0.64367819    -0.75000
O1053       O  0.78038232  0.16118534  0.64237166    -0.74400
O1054       O  0.84263926  0.11888904  0.64334855    -0.74900
O1055       O  0.80156078  0.09847094  0.60161248    -0.74800
O1056       O  0.81759116  0.12764143  0.57374013    -0.74500
C1057       C  0.90234193  0.20162932  0.58252435     0.77200
C1058       C  0.86779943  0.23400443  0.64932079     0.77700
C1059       C  0.80370500  0.20009083  0.58051288     0.76700
C1060       C  0.76922614  0.13472200  0.64831617     0.77100
C1061       C  0.86922336  0.13392877  0.64881804     0.78200
C1062       C  0.80425469  0.10222827  0.58168983     0.77300
C1063       C  0.50372650  0.00137056  0.78384319     0.45600
H1064       H  0.50393289  0.00164671  0.80139242    -0.03500
C1065       C  0.50316201  0.00034111  0.74262308     0.45600
H1066       H  0.50282563  0.99997520  0.72507520    -0.03500
C1067       C  0.98792146  0.01623117  0.77386869    -0.17200
C1068       C  0.53421451  0.01627497  0.77383488    -0.16900
C1069       C  0.98851777  0.47045165  0.77447600    -0.17300
C1070       C  0.98782959  0.01578016  0.75215084    -0.17300
C1071       C  0.53387833  0.01629859  0.75209645    -0.16800
C1072       C  0.98806932  0.46994655  0.75277946    -0.17100
Zn1073     Zn  0.64787124  0.35435858  0.42245349     1.49700
Zn1074     Zn  0.70773116  0.35423788  0.42222864     1.49400
Zn1075     Zn  0.64821032  0.29416960  0.42217312     1.49100
Zn1076     Zn  0.66761712  0.33421461  0.38058370     1.49500
O1077       O  0.66782527  0.33424779  0.41168756    -1.84000
O1078       O  0.67390513  0.38826004  0.44109343    -0.74600
O1079       O  0.71629128  0.32785977  0.43995498    -0.74500
O1080       O  0.61484969  0.28650441  0.44118415    -0.74000
O1081       O  0.71558066  0.38800886  0.44095529    -0.74700
O1082       O  0.61387105  0.32798384  0.44076195    -0.74300
O1083       O  0.67478245  0.28586714  0.43981889    -0.74800
O1084       O  0.64647345  0.29253797  0.36913344    -0.74200
O1085       O  0.73604738  0.36933266  0.39833721    -0.75000
O1086       O  0.63305870  0.26550067  0.39826311    -0.74400
O1087       O  0.70909535  0.35522100  0.36921586    -0.74900
O1088       O  0.64709090  0.35546379  0.36955184    -0.74800
O1089       O  0.63382784  0.36929100  0.39867352    -0.74500
C1090       C  0.70004882  0.39867672  0.44727622     0.77200
C1091       C  0.70100475  0.30145207  0.44584848     0.77700
C1092       C  0.60393137  0.30194359  0.44727468     0.76700
C1093       C  0.63387204  0.26765194  0.37820810     0.77100
C1094       C  0.73386668  0.36820125  0.37829841     0.78200
C1095       C  0.63498206  0.36825274  0.37861834     0.77300
Zn1096     Zn  0.70762884  0.35268630  0.10483138     1.49700
Zn1097     Zn  0.64699025  0.29364751  0.10484698     1.49400
Zn1098     Zn  0.66779472  0.33345695  0.14672230     1.49100
Zn1099     Zn  0.64849801  0.35444828  0.10522206     1.49500
O1100       O  0.66777188  0.33357390  0.11558992    -1.84000
O1101       O  0.71476430  0.32596694  0.08616016    -0.74600
O1102       O  0.63330285  0.26491080  0.12860930    -0.74500
O1103       O  0.70935260  0.35420839  0.15784092    -0.74000
O1104       O  0.67219903  0.28508184  0.08590956    -0.74700
O1105       O  0.73622832  0.36617703  0.12868817    -0.74300
O1106       O  0.64761393  0.29170878  0.15783774    -0.74800
O1107       O  0.63417555  0.36858720  0.12921586    -0.74200
O1108       O  0.61247112  0.28624665  0.08723360    -0.75000
O1109       O  0.64667982  0.35402551  0.15832839    -0.74400
O1110       O  0.61429067  0.32906787  0.08686470    -0.74900
O1111       O  0.67509159  0.38875880  0.08724451    -0.74800
O1112       O  0.71633455  0.38760224  0.08698903    -0.74500
C1113       C  0.69845866  0.29993143  0.07978680     0.77200
C1114       C  0.63501833  0.26692162  0.14865273     0.77700
C1115       C  0.73409976  0.36567474  0.14873703     0.76700
C1116       C  0.63464041  0.36690451  0.14925787     0.77100
C1117       C  0.60261900  0.30257634  0.08104362     0.78200
C1118       C  0.70124696  0.39901747  0.08114700     0.77300
C1119       C  0.49993719  0.00030698  0.28419678     0.45600
H1120       H  0.50005191  0.00056999  0.30174649    -0.03500
C1121       C  0.49969983  0.00001898  0.24294195     0.45600
H1122       H  0.49955434  0.99974344  0.22539115    -0.05700
C1123       C  0.51551598  0.48510618  0.27443172    -0.17200
C1124       C  0.96927829  0.48504606  0.27452144    -0.16900
C1125       C  0.51492078  0.03093228  0.27430663    -0.17300
C1126       C  0.51504317  0.48464932  0.25271328    -0.17300
C1127       C  0.96919789  0.48461686  0.25282660    -0.16800
C1128       C  0.51516634  0.03079290  0.25258245    -0.17100
C1129       C  0.53056781  0.05756154  0.23953589    -0.03200
C1130       C  0.51599381  0.06309184  0.22327756    -0.09000
C1131       C  0.52989061  0.08941666  0.21212882    -0.16700
C1132       C  0.55862432  0.11030323  0.21697798     0.25500
C1133       C  0.57360844  0.10448877  0.23269652    -0.18300
C1134       C  0.55969991  0.07821581  0.24386345    -0.07200
C1135       C  0.57260641  0.13779869  0.20600144    -0.13700
C1136       C  0.58402047  0.16072925  0.19666611    -0.13400
C1137       C  0.59705701  0.18753493  0.18482020     0.25400
C1138       C  0.61220026  0.21449411  0.19512192    -0.18800
C1139       C  0.62460791  0.24044962  0.18344327    -0.07300
C1140       C  0.62201082  0.23969044  0.16129784    -0.03400
C1141       C  0.60679008  0.21242536  0.15114951    -0.08700
C1142       C  0.59441326  0.18659929  0.16283224    -0.16300
H1143       H  0.99367719  0.04750977  0.21960764     0.11800
H1144       H  0.51812369  0.09363056  0.19992155     0.11100
H1145       H  0.59591658  0.12037532  0.23647282     0.11000
H1146       H  0.57152985  0.07414448  0.25609271     0.11600
H1147       H  0.61438016  0.21545384  0.21215984     0.11600
H1148       H  0.63622598  0.26104367  0.19172610     0.11600
H1149       H  0.60434151  0.21098724  0.13414001     0.11700
H1150       H  0.58273126  0.16587273  0.15469560     0.10600
C1151       C  0.94235077  0.46913914  0.24001787    -0.03200
C1152       C  0.92309490  0.43925370  0.24324925    -0.09000
C1153       C  0.89676832  0.42502252  0.23223364    -0.16700
C1154       C  0.88945384  0.44055936  0.21791873     0.25500
C1155       C  0.90880125  0.47023889  0.21441845    -0.18300
C1156       C  0.93516130  0.48442864  0.22536853    -0.07200
C1157       C  0.86199236  0.42629699  0.20700795    -0.13700
C1158       C  0.83925201  0.41518383  0.19752262    -0.13400
C1159       C  0.81272379  0.40272195  0.18545712     0.25400
C1160       C  0.81391777  0.40200478  0.16341875    -0.18800
C1161       C  0.78835620  0.39008414  0.15153573    -0.07300
C1162       C  0.76110828  0.37861985  0.16153133    -0.03400
C1163       C  0.76010623  0.37954188  0.18371974    -0.08700
C1164       C  0.78578164  0.39154555  0.19559326    -0.16300
H1165       H  0.92833445  0.42709003  0.25448753     0.11800
H1166       H  0.88201513  0.40204001  0.23504418     0.11100
H1167       H  0.90333610  0.48250130  0.20343010     0.11000
H1168       H  0.94939052  0.00750219  0.22294484     0.11600
H1169       H  0.83463843  0.41065898  0.15539802     0.11600
H1170       H  0.78997566  0.38976653  0.13449853     0.11600
H1171       H  0.73952549  0.37098258  0.19189718     0.11700
H1172       H  0.78461623  0.39208691  0.21265809     0.10600
C1173       C  0.62075553  0.38027476  0.16198227    -0.03200
C1174       C  0.62072031  0.37946573  0.18420974    -0.09000
C1175       C  0.60750297  0.39226737  0.19589812    -0.16700
C1176       C  0.59417264  0.40599824  0.18553054     0.25500
C1177       C  0.59407946  0.40682454  0.16346599    -0.18300
C1178       C  0.60722760  0.39410356  0.15178676    -0.07200
C1179       C  0.58048629  0.41925839  0.19733475    -0.13700
C1180       C  0.56864704  0.43052564  0.20652861    -0.13400
C1181       C  0.55421728  0.44377111  0.21740091     0.25400
C1182       C  0.56099641  0.47239607  0.21262903    -0.18800
C1183       C  0.54753314  0.48544804  0.22366860    -0.07300
C1184       C  0.52739182  0.47006198  0.23970508    -0.03400
C1185       C  0.52002230  0.44107220  0.24395553    -0.08700
C1186       C  0.53344007  0.42805874  0.23292416    -0.16300
H1187       H  0.63089471  0.36898995  0.19254814     0.11800
H1188       H  0.60768750  0.39146051  0.21299235     0.11100
H1189       H  0.58382310  0.41733482  0.15525260     0.11000
H1190       H  0.60676568  0.39513303  0.13471901     0.11600
H1191       H  0.57694296  0.48473424  0.20058002     0.11600
H1192       H  0.55347070  0.50780250  0.22016641     0.11600
H1193       H  0.50419144  0.42868042  0.25605169     0.11700
H1194       H  0.52783011  0.40585204  0.23665620     0.10600
C1195       C  0.94245958  0.47370741  0.28745733    -0.03200
C1196       C  0.92166826  0.48208171  0.28292227    -0.09000
C1197       C  0.89540039  0.46977101  0.29399620    -0.16700
C1198       C  0.88972242  0.44913098  0.30983236     0.25500
C1199       C  0.91073509  0.44141815  0.31489911    -0.18300
C1200       C  0.93702982  0.45376139  0.30382950    -0.07200
C1201       C  0.86222082  0.43554496  0.32067549    -0.13700
C1202       C  0.83934398  0.42384333  0.32997074    -0.13400
C1203       C  0.81268970  0.40990256  0.34186889     0.25400
C1204       C  0.81374555  0.41116063  0.36391908    -0.18800
C1205       C  0.78809889  0.39757476  0.37568039    -0.07300
C1206       C  0.76089276  0.38246573  0.36555340    -0.03400
C1207       C  0.76000292  0.38132680  0.34334232    -0.08700
C1208       C  0.78578486  0.39496330  0.33158027    -0.16300
H1209       H  0.92564566  0.49789340  0.27062666     0.11800
H1210       H  0.87941729  0.47610059  0.29005217     0.11100
H1211       H  0.90662486  0.42555753  0.32719621     0.11000
H1212       H  0.95264587  0.44703903  0.30764054     0.11600
H1213       H  0.83443251  0.42263675  0.37204706     0.11600
H1214       H  0.78963575  0.39895350  0.39273983     0.11600
H1215       H  0.73944584  0.36989480  0.33507307     0.11700
H1216       H  0.78473711  0.39383294  0.31449331     0.10600
C1217       C  0.52684897  0.05790998  0.28720557    -0.03200
C1218       C  0.51849723  0.07887040  0.28311505    -0.09000
C1219       C  0.53128343  0.10526044  0.29418288    -0.16700
C1220       C  0.55248620  0.11096886  0.30952120     0.25500
C1221       C  0.56033469  0.08981066  0.31404882    -0.18300
C1222       C  0.54745640  0.06332476  0.30302094    -0.07200
C1223       C  0.56638556  0.13860935  0.32043368    -0.13700
C1224       C  0.57818364  0.16159855  0.32975580    -0.13400
C1225       C  0.59223004  0.18841082  0.34168816     0.25400
C1226       C  0.59278209  0.18732776  0.36374077    -0.18800
C1227       C  0.60637281  0.21308233  0.37551624    -0.07300
C1228       C  0.61970992  0.24047865  0.36542827    -0.03400
C1229       C  0.61911735  0.24140650  0.34321624    -0.08700
C1230       C  0.60544574  0.21551950  0.33143799    -0.16300
H1231       H  0.50234300  0.07492173  0.27114960     0.11800
H1232       H  0.52486501  0.12132263  0.29061813     0.11100
H1233       H  0.57665247  0.09393093  0.32592089     0.11000
H1234       H  0.55417536  0.04743869  0.30637136     0.11600
H1235       H  0.58268551  0.16652424  0.37186851     0.11600
H1236       H  0.60639671  0.21147812  0.39256663     0.11600
H1237       H  0.62914186  0.26208758  0.33495318     0.11700
H1238       H  0.60518811  0.21665259  0.31435998     0.10600
C1239       C  0.53113127  0.47376278  0.28731670    -0.03200
C1240       C  0.56044286  0.48274612  0.28312264    -0.09000
C1241       C  0.57446647  0.47017429  0.29396462    -0.16700
C1242       C  0.55940909  0.44866633  0.30922639     0.25500
C1243       C  0.53045232  0.44021663  0.31386766    -0.18300
C1244       C  0.51642674  0.45277534  0.30301194    -0.07200
C1245       C  0.57350392  0.43508384  0.32004140    -0.13700
C1246       C  0.58474490  0.42344835  0.32950091    -0.13400
C1247       C  0.59751360  0.40960641  0.34163958     0.25400
C1248       C  0.59762379  0.41108032  0.36369247    -0.18800
C1249       C  0.60975811  0.39759055  0.37566361    -0.07300
C1250       C  0.62203156  0.38238212  0.36574336    -0.03400
C1251       C  0.62184792  0.38101861  0.34353262    -0.08700
C1252       C  0.60963409  0.39453859  0.33157059    -0.16300
H1253       H  0.57228797  0.49914027  0.27120146     0.11800
H1254       H  0.59691885  0.47701015  0.29030360     0.11100
H1255       H  0.51859166  0.42362651  0.32567100     0.11000
H1256       H  0.99388022  0.44535448  0.30638120     0.11600
H1257       H  0.58829178  0.42265666  0.37165871     0.11600
H1258       H  0.60954812  0.39913724  0.39271025     0.11600
H1259       H  0.63109463  0.36949848  0.33540441     0.11700
H1260       H  0.60962958  0.39322287  0.31449406     0.10600
C1261       C  0.79161575  0.07690735  0.56723373    -0.03200
C1262       C  0.79304524  0.08150430  0.54525890    -0.09000
C1263       C  0.78100117  0.05795898  0.53136317    -0.16700
C1264       C  0.76739256  0.02946813  0.53915209     0.25500
C1265       C  0.76587581  0.02452542  0.56097191    -0.18300
C1266       C  0.77791659  0.04814733  0.57498298    -0.07200
C1267       C  0.75505168  0.00556992  0.52451852    -0.13700
C1268       C  0.74534343  0.48690174  0.51116840    -0.13400
C1269       C  0.73425192  0.46550891  0.49461792     0.25400
C1270       C  0.70551682  0.45394017  0.48777789    -0.18800
C1271       C  0.69457333  0.43276175  0.47191750    -0.07300
C1272       C  0.71228218  0.42286555  0.46273732    -0.03400
C1273       C  0.74134080  0.43510774  0.46943868    -0.08700
C1274       C  0.75223307  0.45631341  0.48527089    -0.16300
H1275       H  0.80336985  0.10333697  0.53873722     0.11800
H1276       H  0.78226853  0.06199366  0.51450625     0.11100
H1277       H  0.75537302  0.00248232  0.56713273     0.11000
H1278       H  0.77650486  0.04392304  0.59180228     0.11600
H1279       H  0.69148664  0.46106622  0.49485121     0.11600
H1280       H  0.67210453  0.42374079  0.46715781     0.11600
H1281       H  0.75554873  0.42799728  0.46268761     0.11700
H1282       H  0.77458072  0.46530971  0.49037198     0.10600
C1283       C  0.58011393  0.28985011  0.46296192    -0.03200
C1284       C  0.56726399  0.30623809  0.46965601    -0.09000
C1285       C  0.54659178  0.29590785  0.48581589    -0.16700
C1286       C  0.53856771  0.26915996  0.49550272     0.25500
C1287       C  0.55072771  0.25239420  0.48866476    -0.18300
C1288       C  0.57136110  0.26263728  0.47247622    -0.07200
C1289       C  0.51769149  0.25885169  0.51235413    -0.13700
C1290       C  0.99926498  0.24989890  0.52584409    -0.13400
C1291       C  0.97536276  0.23829844  0.54040896     0.25400
C1292       C  0.94705928  0.22454791  0.53247092    -0.18800
C1293       C  0.92346205  0.21284272  0.54624387    -0.07300
C1294       C  0.92779556  0.21469469  0.56825572    -0.03400
C1295       C  0.95637641  0.22875573  0.57616842    -0.08700
C1296       C  0.98007210  0.24049850  0.56226965    -0.16300
H1297       H  0.57351599  0.32725317  0.46266076     0.11800
H1298       H  0.53710469  0.30892610  0.49090970     0.11100
H1299       H  0.54449467  0.23156040  0.49599265     0.11000
H1300       H  0.58089724  0.24953462  0.46774389     0.11600
H1301       H  0.94320593  0.22277971  0.51558309     0.11600
H1302       H  0.90178267  0.20223841  0.53958300     0.11600
H1303       H  0.96039807  0.23053657  0.59301857     0.11700
H1304       H  0.00197821  0.25116783  0.56854353     0.10600
C1305       C  0.79099217  0.21227155  0.56561620    -0.03200
C1306       C  0.77936753  0.22957409  0.57273815    -0.09000
C1307       C  0.76769989  0.24109468  0.55831055    -0.16700
C1308       C  0.76746317  0.23533892  0.53669253     0.25500
C1309       C  0.77885085  0.21807116  0.52952932    -0.18300
C1310       C  0.79055586  0.20664604  0.54384364    -0.07200
C1311       C  0.75574126  0.24711311  0.52165783    -0.13700
C1312       C  0.74639914  0.25638764  0.50822440    -0.13400
C1313       C  0.73551439  0.26720119  0.49183365     0.25400
C1314       C  0.70754001  0.24952505  0.48375792    -0.18800
C1315       C  0.69659338  0.26034210  0.46828401    -0.07300
C1316       C  0.71354081  0.28903631  0.46070764    -0.03400
C1317       C  0.74192721  0.30637452  0.46856561    -0.08700
C1318       C  0.75280952  0.29549694  0.48403995    -0.16300
H1319       H  0.77944722  0.23432798  0.58938141     0.11800
H1320       H  0.75893404  0.25449265  0.56399232     0.11100
H1321       H  0.77874041  0.21347137  0.51283859     0.11000
H1322       H  0.79922488  0.19333833  0.53781321     0.11600
H1323       H  0.69404446  0.22752353  0.48962413     0.11600
H1324       H  0.67466386  0.24643804  0.46258494     0.11600
H1325       H  0.75552658  0.32854927  0.46309149     0.11700
H1326       H  0.77455995  0.30929033  0.49012717     0.10600
C1327       C  0.97470604  0.02915926  0.73872670    -0.03200
C1328       C  0.95523017  0.01288057  0.72256782    -0.09000
C1329       C  0.94185624  0.02508552  0.71047410    -0.16700
C1330       C  0.94806442  0.05372752  0.71434405     0.25500
C1331       C  0.96796769  0.07022847  0.73012918    -0.18300
C1332       C  0.98132501  0.05807348  0.74219607    -0.07200
C1333       C  0.93387616  0.06624748  0.70238415    -0.13700
C1334       C  0.92233557  0.07760495  0.69297757    -0.13400
C1335       C  0.90889916  0.09183806  0.68218531     0.25400
C1336       C  0.92536717  0.12139355  0.67685861    -0.18800
C1337       C  0.91239986  0.13526178  0.66630449    -0.07300
C1338       C  0.88272325  0.11970076  0.66092382    -0.03400
C1339       C  0.86630565  0.09003890  0.66653247    -0.08700
C1340       C  0.87932803  0.07623675  0.67708929    -0.16300
H1341       H  0.94990541  0.49055917  0.71965173     0.11800
H1342       H  0.92651949  0.01213909  0.69826814     0.11100
H1343       H  0.97304137  0.09244486  0.73318692     0.11000
H1344       H  0.49670274  0.07116246  0.75432898     0.11600
H1345       H  0.94827112  0.13369525  0.68077978     0.11600
H1346       H  0.92568337  0.15807147  0.66218320     0.11600
H1347       H  0.84344056  0.07739488  0.66260815     0.11700
H1348       H  0.86635757  0.05336823  0.68119012     0.10600
C1349       C  0.56036842  0.03159632  0.73875679    -0.03200
C1350       C  0.56418295  0.01755534  0.72126209    -0.09000
C1351       C  0.59005086  0.03106861  0.70969259    -0.16700
C1352       C  0.61224457  0.05893525  0.71534107     0.25500
C1353       C  0.60815159  0.07359840  0.73222479    -0.18300
C1354       C  0.58226780  0.06011157  0.74376449    -0.07200
C1355       C  0.63937370  0.07223208  0.70405297    -0.13700
C1356       C  0.66220179  0.08313006  0.69472266    -0.13400
C1357       C  0.68938489  0.09616047  0.68350349     0.25400
C1358       C  0.70297140  0.12561513  0.67781490    -0.18800
C1359       C  0.72911068  0.13823989  0.66657790    -0.07300
C1360       C  0.74204888  0.12153308  0.66087500    -0.03400
C1361       C  0.72833379  0.09196808  0.66683848    -0.08700
C1362       C  0.70215917  0.07938720  0.67807380    -0.16300
H1363       H  0.54758298  0.49587937  0.71686637     0.11800
H1364       H  0.59290522  0.01961537  0.69654032     0.11100
H1365       H  0.62506563  0.09529847  0.73660883     0.11000
H1366       H  0.57950973  0.07176786  0.75680787     0.11600
H1367       H  0.69326905  0.13879267  0.68195347     0.11600
H1368       H  0.73906011  0.16103511  0.66223751     0.11600
H1369       H  0.73766843  0.07848475  0.66267095     0.11700
H1370       H  0.69180417  0.05654935  0.68241062     0.10600
C1371       C  0.97251385  0.44295829  0.74009354    -0.03200
C1372       C  0.94285171  0.42345644  0.74362352    -0.09000
C1373       C  0.92849718  0.39734502  0.73229384    -0.16700
C1374       C  0.94364532  0.39060497  0.71727839     0.25500
C1375       C  0.97308143  0.41019923  0.71347468    -0.18300
C1376       C  0.98742940  0.43627448  0.72481742    -0.07200
C1377       C  0.92925869  0.36335849  0.70606975    -0.13700
C1378       C  0.91792006  0.34051502  0.69666752    -0.13400
C1379       C  0.90508243  0.31338455  0.68529086     0.25400
C1380       C  0.92161647  0.30008042  0.68073819    -0.18800
C1381       C  0.90940680  0.27402802  0.66928602    -0.07300
C1382       C  0.88044406  0.26094474  0.66222372    -0.03400
C1383       C  0.86391707  0.27436992  0.66708328    -0.08700
C1384       C  0.87618855  0.30042276  0.67852947    -0.16300
H1385       H  0.93093277  0.42837187  0.75526519     0.11800
H1386       H  0.90570574  0.38234350  0.73535402     0.11100
H1387       H  0.98503260  0.40513675  0.70195063     0.11000
H1388       H  0.51031917  0.45071445  0.72212426     0.11600
H1389       H  0.94401862  0.30995554  0.68591065     0.11600
H1390       H  0.92273046  0.26430125  0.66580551     0.11600
H1391       H  0.84158339  0.26491927  0.66186924     0.11700
H1392       H  0.86320600  0.31055391  0.68197271     0.10600
C1393       C  0.57774436  0.29084946  0.06626375    -0.03200
C1394       C  0.56445594  0.26163248  0.05954146    -0.09000
C1395       C  0.54220877  0.25110678  0.04453933    -0.16700
C1396       C  0.53298220  0.26960421  0.03607677     0.25500
C1397       C  0.54573593  0.29856489  0.04287329    -0.18300
C1398       C  0.56796869  0.30914807  0.05789426    -0.07200
C1399       C  0.51073195  0.25892708  0.02018406    -0.13700
C1400       C  0.99214166  0.24953717  0.00681127    -0.13400
C1401       C  0.96970334  0.23767389  0.99106284     0.25400
C1402       C  0.95763171  0.25419949  0.98351415    -0.18800
C1403       C  0.93513015  0.24227143  0.96871020    -0.07300
C1404       C  0.92442564  0.21361250  0.96127994    -0.03400
C1405       C  0.93704038  0.19734940  0.96874605    -0.08700
C1406       C  0.95952554  0.20933109  0.98356081    -0.16300
H1407       H  0.57150022  0.24700435  0.06564253     0.11800
H1408       H  0.53242096  0.22863111  0.03937270     0.11100
H1409       H  0.53871427  0.31304095  0.03640312     0.11000
H1410       H  0.57780444  0.33176789  0.06267782     0.11600
H1411       H  0.96539998  0.27618108  0.98922808     0.11600
H1412       H  0.92591063  0.25537707  0.96328247     0.11600
H1413       H  0.92928836  0.17523629  0.96337379     0.11700
H1414       H  0.96876587  0.19638250  0.98932604     0.10600
C1415       C  0.79184874  0.07637786  0.96012053    -0.03200
C1416       C  0.76305714  0.06441352  0.96738520    -0.09000
C1417       C  0.75203419  0.04214173  0.98243894    -0.16700
C1418       C  0.76957374  0.03149631  0.99040600     0.25500
C1419       C  0.79804465  0.04282191  0.98300946    -0.18300
C1420       C  0.80914644  0.06513002  0.96794750    -0.07200
C1421       C  0.75849386  0.00938511  0.00648708    -0.13700
C1422       C  0.74897288  0.49103350  0.02009033    -0.13400
C1423       C  0.73733983  0.46891951  0.03615752     0.25400
C1424       C  0.75519713  0.45986598  0.04591581    -0.18800
C1425       C  0.74362800  0.43754206  0.06093994    -0.07300
C1426       C  0.71402231  0.42406030  0.06642101    -0.03400
C1427       C  0.69638595  0.43375120  0.05682468    -0.08700
C1428       C  0.70799016  0.45600199  0.04175060    -0.16300
H1429       H  0.74917193  0.07258405  0.96171945     0.11800
H1430       H  0.72995008  0.03348414  0.98806011     0.11100
H1431       H  0.81177548  0.03467568  0.98907865     0.11000
H1432       H  0.83138917  0.07387133  0.96270536     0.11600
H1433       H  0.77796963  0.46979435  0.04171101     0.11600
H1434       H  0.75777310  0.43060510  0.06805602     0.11600
H1435       H  0.67348601  0.42372925  0.06061380     0.11700
H1436       H  0.69399365  0.46287026  0.03426783     0.10600
C1437       C  0.78610808  0.20929062  0.95921227    -0.03200
C1438       C  0.80032465  0.23924179  0.96402248    -0.09000
C1439       C  0.78819318  0.25014527  0.97847901    -0.16700
C1440       C  0.76178100  0.23128944  0.98834891     0.25500
C1441       C  0.74719636  0.20155033  0.98339872    -0.18300
C1442       C  0.75922310  0.19059808  0.96887366    -0.07200
C1443       C  0.75015271  0.24236575  0.00401904    -0.13700
C1444       C  0.74106014  0.25189562  0.01745349    -0.13400
C1445       C  0.73062008  0.26355286  0.03356959     0.25400
C1446       C  0.70168557  0.24776513  0.04025096    -0.18800
C1447       C  0.69137144  0.25933503  0.05562213    -0.07300
C1448       C  0.70989692  0.28693618  0.06448134    -0.03400
C1449       C  0.73906419  0.30248074  0.05783051    -0.08700
C1450       C  0.74933491  0.29082339  0.04247969    -0.16300
H1451       H  0.82098929  0.25420804  0.95681012     0.11800
H1452       H  0.79962714  0.27321538  0.98218959     0.11100
H1453       H  0.72674524  0.18676985  0.99098196     0.11000
H1454       H  0.74778735  0.16742383  0.96556995     0.11600
H1455       H  0.68703195  0.22662207  0.03345607     0.11600
H1456       H  0.66878031  0.24684686  0.06031976     0.11600
H1457       H  0.75387220  0.32377329  0.06431052     0.11700
H1458       H  0.77180159  0.30318880  0.03743080     0.10600
C1459       C  0.88368798  0.12195027  0.86428400    -0.03200
C1460       C  0.88024537  0.11995942  0.84218319    -0.09000
C1461       C  0.89246854  0.10658959  0.83005866    -0.16700
C1462       C  0.90833331  0.09514619  0.83985486     0.25500
C1463       C  0.91207712  0.09729253  0.86177157    -0.18300
C1464       C  0.89985374  0.11054065  0.87390340    -0.07200
C1465       C  0.92071715  0.08099815  0.82763106    -0.13700
C1466       C  0.93162890  0.06891201  0.81833143    -0.13400
C1467       C  0.94530435  0.05464054  0.80786658     0.25400
C1468       C  0.97439010  0.06322719  0.81217503    -0.18800
C1469       C  0.98799231  0.04997780  0.80163881    -0.07300
C1470       C  0.97271279  0.02815535  0.78659404    -0.03400
C1471       C  0.94327411  0.01900032  0.78279191    -0.08700
C1472       C  0.92968029  0.03225685  0.79331658    -0.16300
H1473       H  0.86789807  0.12846794  0.83429011     0.11800
H1474       H  0.88943659  0.10506506  0.81308929     0.11100
H1475       H  0.92435596  0.08857849  0.86952289     0.11000
H1476       H  0.90301884  0.11175577  0.89084853     0.11600
H1477       H  0.98667745  0.08046154  0.82344979     0.11600
H1478       H  0.51067068  0.05750690  0.80468200     0.11600
H1479       H  0.93101098  0.00197420  0.77137705     0.11700
H1480       H  0.90712118  0.02528020  0.78994125     0.10600
C1481       C  0.56120184  0.02713908  0.78653704    -0.03200
C1482       C  0.56718009  0.04700528  0.80305500    -0.09000
C1483       C  0.59394872  0.05944967  0.81351980    -0.16700
C1484       C  0.61486666  0.05190910  0.80770966     0.25500
C1485       C  0.60856020  0.03118635  0.79183710    -0.18300
C1486       C  0.58181021  0.01872536  0.78140279    -0.07200
C1487       C  0.64284373  0.06567215  0.81791152    -0.13700
C1488       C  0.66588684  0.07753496  0.82699529    -0.13400
C1489       C  0.69230767  0.09166509  0.83916484     0.25400
C1490       C  0.71951215  0.10292239  0.82939258    -0.18800
C1491       C  0.74498486  0.11660696  0.84151003    -0.07300
C1492       C  0.74346630  0.11905434  0.86355775    -0.03400
C1493       C  0.71598823  0.10770855  0.87314224    -0.08700
C1494       C  0.69066782  0.09419153  0.86102878    -0.16300
H1495       H  0.55164278  0.05366383  0.80737466     0.11800
H1496       H  0.59851774  0.07530704  0.82590098     0.11100
H1497       H  0.62443793  0.02495357  0.78733754     0.11000
H1498       H  0.57741861  0.00298179  0.76897512     0.11600
H1499       H  0.72103135  0.10109467  0.81245413     0.11600
H1500       H  0.76578718  0.12504628  0.83366905     0.11600
H1501       H  0.71399873  0.10930696  0.89004662     0.11700
H1502       H  0.66975516  0.08564690  0.86874985     0.10600
C1503       C  0.97599153  0.44384919  0.78777489    -0.03200
C1504       C  0.95591975  0.43968311  0.80372780    -0.09000
C1505       C  0.94239810  0.41352690  0.81514702    -0.16700
C1506       C  0.94906954  0.39148590  0.81083197     0.25500
C1507       C  0.96971722  0.39593112  0.79535260    -0.18300
C1508       C  0.98317314  0.42199414  0.78392872    -0.07200
C1509       C  0.93462540  0.36420479  0.82209845    -0.13700
C1510       C  0.92279040  0.34128057  0.83145338    -0.13400
C1511       C  0.90912993  0.31427189  0.84308345     0.25400
C1512       C  0.91229689  0.31467781  0.86502151    -0.18800
C1513       C  0.89910991  0.28863637  0.87647072    -0.07300
C1514       C  0.88257900  0.26169092  0.86612603    -0.03400
C1515       C  0.87959993  0.26145050  0.84403201    -0.08700
C1516       C  0.89276633  0.28761367  0.83259752    -0.16300
H1517       H  0.95010850  0.45628789  0.80689002     0.11800
H1518       H  0.92651390  0.41035332  0.82714171     0.11100
H1519       H  0.97520557  0.37914304  0.79197095     0.11000
H1520       H  0.49894083  0.42499288  0.77189206     0.11600
H1521       H  0.92496139  0.33515381  0.87330049     0.11600
H1522       H  0.90196903  0.28963927  0.89344484     0.11600
H1523       H  0.86699092  0.24110627  0.83561194     0.11700
H1524       H  0.89017854  0.28705012  0.81560045     0.10600
Zn1525     Zn  0.85636548  0.64763453  0.92150670     1.49700
Zn1526     Zn  0.79533241  0.64578879  0.92101089     1.49400
Zn1527     Zn  0.85387235  0.70665992  0.92202199     1.49100
Zn1528     Zn  0.83612961  0.66775861  0.87986746     1.49500
O1529       O  0.83545439  0.66692453  0.91096176    -1.84000
O1530       O  0.83057060  0.61283767  0.93963391    -0.74600
O1531       O  0.78545288  0.67097794  0.93905523    -0.74500
O1532       O  0.88756558  0.71508904  0.94087984    -0.74000
O1533       O  0.78814885  0.61161700  0.93905335    -0.74700
O1534       O  0.89025021  0.67453604  0.93985113    -0.74300
O1535       O  0.82614255  0.71374392  0.93929240    -0.74800
O1536       O  0.85658148  0.70963083  0.86907066    -0.74200
O1537       O  0.76745632  0.63118616  0.89671929    -0.75000
O1538       O  0.86901657  0.73585683  0.89856473    -0.74400
O1539       O  0.79507882  0.64649301  0.86796246    -0.74900
O1540       O  0.85746370  0.64760126  0.86850934    -0.74800
O1541       O  0.87135352  0.63399673  0.89743647    -0.74500
C1542       C  0.80410931  0.60140986  0.94534746     0.77200
C1543       C  0.79986644  0.69744698  0.94498501     0.77700
C1544       C  0.89957355  0.70044393  0.94646309     0.76700
C1545       C  0.86861724  0.73423470  0.87850288     0.77100
C1546       C  0.77011807  0.63301766  0.87670641     0.78200
C1547       C  0.87017157  0.63529555  0.87739118     0.77300
Zn1548     Zn  0.83690827  0.66776962  0.58541706     1.49700
Zn1549     Zn  0.87639885  0.68818427  0.62651707     1.49400
Zn1550     Zn  0.81554214  0.68807175  0.62511097     1.49100
Zn1551     Zn  0.81580274  0.62727255  0.62593125     1.49500
O1552       O  0.83620365  0.66783414  0.61599320    -1.84000
O1553       O  0.87717151  0.68839337  0.57432503    -0.74600
O1554       O  0.88339245  0.72266548  0.64454320    -0.74500
O1555       O  0.80164913  0.70243174  0.60037917    -0.74000
O1556       O  0.90572387  0.70360213  0.60250256    -0.74700
O1557       O  0.81658043  0.68726001  0.57300667    -0.74300
O1558       O  0.84163139  0.72292108  0.64293114    -0.74800
O1559       O  0.78075261  0.61932284  0.64342194    -0.74200
O1560       O  0.88455131  0.66073038  0.64368017    -0.75000
O1561       O  0.78038269  0.66118346  0.64237302    -0.74400
O1562       O  0.84264451  0.61889253  0.64334881    -0.74900
O1563       O  0.80156586  0.59847415  0.60161289    -0.74800
O1564       O  0.81759551  0.62764508  0.57374072    -0.74500
C1565       C  0.90234429  0.70163435  0.58252677     0.77200
C1566       C  0.86779576  0.73400472  0.64932280     0.77700
C1567       C  0.80370307  0.70008945  0.58051318     0.76700
C1568       C  0.76922901  0.63472068  0.64831832     0.77100
C1569       C  0.86922812  0.63393361  0.64881914     0.78200
C1570       C  0.80425992  0.60223181  0.58169027     0.77300
C1571       C  0.50372589  0.50137356  0.78384411     0.45600
H1572       H  0.50393150  0.50165136  0.80139337    -0.03500
C1573       C  0.50316522  0.50034057  0.74262391     0.45600
H1574       H  0.50283050  0.49997341  0.72507600    -0.03500
C1575       C  0.98791789  0.51622976  0.77386675    -0.17200
C1576       C  0.53421475  0.51628039  0.77383698    -0.16900
C1577       C  0.98851478  0.97044985  0.77447416    -0.17300
C1578       C  0.98782949  0.51577800  0.75214878    -0.17300
C1579       C  0.53388062  0.51630144  0.75209868    -0.16800
C1580       C  0.98806463  0.96994669  0.75277766    -0.17100
Zn1581     Zn  0.64786797  0.85435542  0.42245299     1.49700
Zn1582     Zn  0.70772959  0.85423653  0.42222770     1.49400
Zn1583     Zn  0.64820914  0.79416778  0.42217262     1.49100
Zn1584     Zn  0.66761370  0.83421294  0.38058326     1.49500
O1585       O  0.66782320  0.83424593  0.41168703    -1.84000
O1586       O  0.67390184  0.88825728  0.44109186    -0.74600
O1587       O  0.71629130  0.82785755  0.43995274    -0.74500
O1588       O  0.61485113  0.78650280  0.44118652    -0.74000
O1589       O  0.71557828  0.88800771  0.44095457    -0.74700
O1590       O  0.61386951  0.82798063  0.44076278    -0.74300
O1591       O  0.67478313  0.78586428  0.43981480    -0.74800
O1592       O  0.64646966  0.79253638  0.36913326    -0.74200
O1593       O  0.73604476  0.86933257  0.39833525    -0.75000
O1594       O  0.63305439  0.76549899  0.39826291    -0.74400
O1595       O  0.70909133  0.85522016  0.36921455    -0.74900
O1596       O  0.64708681  0.85546170  0.36955197    -0.74800
O1597       O  0.63382292  0.86928763  0.39867377    -0.74500
C1598       C  0.70004555  0.89867502  0.44727477     0.77200
C1599       C  0.70100544  0.80144881  0.44584438     0.77700
C1600       C  0.60393201  0.80194131  0.44727690     0.76700
C1601       C  0.63386750  0.76765038  0.37820794     0.77100
C1602       C  0.73386308  0.86820120  0.37829645     0.78200
C1603       C  0.63497749  0.86825006  0.37861860     0.77300
Zn1604     Zn  0.70762659  0.85268335  0.10483207     1.49700
Zn1605     Zn  0.64698697  0.79364712  0.10484863     1.49400
Zn1606     Zn  0.66779224  0.83345711  0.14672316     1.49100
Zn1607     Zn  0.64849864  0.85445020  0.10522210     1.49500
O1608       O  0.66777001  0.83357368  0.11559078    -1.84000
O1609       O  0.71476005  0.82596213  0.08616124    -0.74600
O1610       O  0.63330008  0.76491106  0.12861115    -0.74500
O1611       O  0.70935008  0.85421001  0.15784177    -0.74000
O1612       O  0.67219325  0.78507892  0.08591053    -0.74700
O1613       O  0.73622547  0.86617378  0.12868897    -0.74300
O1614       O  0.64761260  0.79170928  0.15783937    -0.74800
O1615       O  0.63417306  0.86858681  0.12921541    -0.74200
O1616       O  0.61246864  0.78624785  0.08723561    -0.75000
O1617       O  0.64667553  0.85402423  0.15832839    -0.74400
O1618       O  0.61429336  0.82907148  0.08686287    -0.74900
O1619       O  0.67509470  0.88876190  0.08724586    -0.74800
O1620       O  0.71633485  0.88759994  0.08698952    -0.74500
C1621       C  0.69845292  0.79992699  0.07978769     0.77200
C1622       C  0.63501668  0.76692204  0.14865453     0.77700
C1623       C  0.73409711  0.86567432  0.14873776     0.76700
C1624       C  0.63463611  0.86690293  0.14925743     0.77100
C1625       C  0.60261972  0.80257924  0.08104326     0.78200
C1626       C  0.70124969  0.89901811  0.08114809     0.77300
C1627       C  0.49993978  0.50030816  0.28419711     0.45600
H1628       H  0.50005548  0.50057254  0.30174690    -0.03500
C1629       C  0.49970088  0.50001705  0.24294216     0.45600
H1630       H  0.49955489  0.49974037  0.22539135    -0.05700
C1631       C  0.51551452  0.98510643  0.27443099    -0.17200
C1632       C  0.96927605  0.98504514  0.27452035    -0.16900
C1633       C  0.51492306  0.53093266  0.27430571    -0.17300
C1634       C  0.51504203  0.98465088  0.25271254    -0.17300
C1635       C  0.96919678  0.98461824  0.25282559    -0.16800
C1636       C  0.51516808  0.53079173  0.25258158    -0.17100
C1637       C  0.53057000  0.55755971  0.23953447    -0.03200
C1638       C  0.51599545  0.56309125  0.22327712    -0.09000
C1639       C  0.52989259  0.58941620  0.21212840    -0.16700
C1640       C  0.55862695  0.61030161  0.21697692     0.25500
C1641       C  0.57361117  0.60448577  0.23269453    -0.18300
C1642       C  0.55970266  0.57821285  0.24386136    -0.07200
C1643       C  0.57260914  0.63779762  0.20600113    -0.13700
C1644       C  0.58402282  0.66072874  0.19666658    -0.13400
C1645       C  0.59705851  0.68753467  0.18482108     0.25400
C1646       C  0.61219672  0.71449406  0.19512344    -0.18800
C1647       C  0.62460351  0.74045003  0.18344535    -0.07300
C1648       C  0.62201025  0.73969088  0.16129958    -0.03400
C1649       C  0.60679454  0.71242558  0.15115046    -0.08700
C1650       C  0.59441864  0.68659887  0.16283274    -0.16300
H1651       H  0.99367796  0.54751037  0.21960827     0.11800
H1652       H  0.51812533  0.59363123  0.19992195     0.11100
H1653       H  0.59591955  0.62037152  0.23647036     0.11000
H1654       H  0.57153286  0.57414090  0.25609015     0.11600
H1655       H  0.61437323  0.71545343  0.21216152     0.11600
H1656       H  0.63621759  0.76104418  0.19172876     0.11600
H1657       H  0.60434938  0.71098788  0.13414065     0.11700
H1658       H  0.58274052  0.66587200  0.15469557     0.10600
C1659       C  0.94235008  0.96914330  0.24001644    -0.03200
C1660       C  0.92309934  0.93925526  0.24323997    -0.09000
C1661       C  0.89677274  0.92502545  0.23222457    -0.16700
C1662       C  0.88945263  0.94056654  0.21791801     0.25500
C1663       C  0.90879459  0.97024932  0.21442608    -0.18300
C1664       C  0.93515490  0.98443780  0.22537585    -0.07200
C1665       C  0.86199109  0.92630489  0.20700722    -0.13700
C1666       C  0.83925056  0.91519102  0.19752209    -0.13400
C1667       C  0.81272194  0.90272716  0.18545701     0.25400
C1668       C  0.81391523  0.90200759  0.16341878    -0.18800
C1669       C  0.78835347  0.89008489  0.15153613    -0.07300
C1670       C  0.76110590  0.87862085  0.16153177    -0.03400
C1671       C  0.76010468  0.87954518  0.18371996    -0.08700
C1672       C  0.78578010  0.89155081  0.19559342    -0.16300
H1673       H  0.92834298  0.92708824  0.25447209     0.11800
H1674       H  0.88202392  0.90204049  0.23502893     0.11100
H1675       H  0.90332492  0.98251516  0.20344450     0.11000
H1676       H  0.94940144  0.50749060  0.22293050     0.11600
H1677       H  0.83463561  0.91066162  0.15539783     0.11600
H1678       H  0.78997268  0.88976575  0.13449908     0.11600
H1679       H  0.73952429  0.87098609  0.19189747     0.11700
H1680       H  0.78461483  0.89209372  0.21265824     0.10600
C1681       C  0.62074955  0.88027205  0.16198115    -0.03200
C1682       C  0.62071730  0.87946708  0.18420875    -0.09000
C1683       C  0.60750084  0.89226961  0.19589710    -0.16700
C1684       C  0.59416803  0.90599742  0.18552883     0.25500
C1685       C  0.59407074  0.90681861  0.16346408    -0.18300
C1686       C  0.60721814  0.89409678  0.15178492    -0.07200
C1687       C  0.58048370  0.91926009  0.19733248    -0.13700
C1688       C  0.56864589  0.93052871  0.20652647    -0.13400
C1689       C  0.55421670  0.94377431  0.21739923     0.25400
C1690       C  0.56099795  0.97240060  0.21262877    -0.18800
C1691       C  0.54753415  0.98545204  0.22366870    -0.07300
C1692       C  0.52739074  0.97006430  0.23970371    -0.03400
C1693       C  0.52001986  0.94107379  0.24395256    -0.08700
C1694       C  0.53343759  0.92806038  0.23292117    -0.16300
H1695       H  0.63089426  0.86899425  0.19254734     0.11800
H1696       H  0.60768857  0.89146629  0.21299154     0.11100
H1697       H  0.58381203  0.91732623  0.15525049     0.11000
H1698       H  0.60675332  0.89512291  0.13471694     0.11600
H1699       H  0.57694619  0.98473983  0.20058073     0.11600
H1700       H  0.55347284  0.00780726  0.22016804     0.11600
H1701       H  0.50418787  0.92868138  0.25604778     0.11700
H1702       H  0.52782618  0.90585278  0.23665207     0.10600
C1703       C  0.94245614  0.97370474  0.28745495    -0.03200
C1704       C  0.92166895  0.98208575  0.28292316    -0.09000
C1705       C  0.89540010  0.96977479  0.29399580    -0.16700
C1706       C  0.88971656  0.94912738  0.30982719     0.25500
C1707       C  0.91072459  0.94140650  0.31488999    -0.18300
C1708       C  0.93702054  0.95374975  0.30382168    -0.07200
C1709       C  0.86221443  0.93554267  0.32066984    -0.13700
C1710       C  0.83933763  0.92384251  0.32996528    -0.13400
C1711       C  0.81268402  0.90990317  0.34186443     0.25400
C1712       C  0.81374135  0.91115905  0.36391443    -0.18800
C1713       C  0.78809529  0.89757324  0.37567623    -0.07300
C1714       C  0.76088831  0.88246638  0.36555043    -0.03400
C1715       C  0.75999688  0.88133011  0.34333950    -0.08700
C1716       C  0.78577826  0.89496664  0.33157698    -0.16300
H1717       H  0.92565058  0.99790330  0.27063123     0.11800
H1718       H  0.87942065  0.97611029  0.29005460     0.11100
H1719       H  0.90660973  0.92553964  0.32718313     0.11000
H1720       H  0.95263261  0.94702059  0.30762915     0.11600
H1721       H  0.83442881  0.92263298  0.37204200     0.11600
H1722       H  0.78963329  0.89894995  0.39273547     0.11600
H1723       H  0.73943927  0.86990008  0.33507067     0.11700
H1724       H  0.78472937  0.89383815  0.31449022     0.10600
C1725       C  0.52685035  0.55791111  0.28720364    -0.03200
C1726       C  0.51849733  0.57887039  0.28311209    -0.09000
C1727       C  0.53128152  0.60526026  0.29417993    -0.16700
C1728       C  0.55248332  0.61096998  0.30951899     0.25500
C1729       C  0.56033299  0.58981304  0.31404724    -0.18300
C1730       C  0.54745716  0.56332701  0.30301972    -0.07200
C1731       C  0.56638056  0.63861023  0.32043171    -0.13700
C1732       C  0.57817758  0.66159890  0.32975438    -0.13400
C1733       C  0.59222359  0.68841044  0.34168732     0.25400
C1734       C  0.59277569  0.68732647  0.36373980    -0.18800
C1735       C  0.60636693  0.71308078  0.37551536    -0.07300
C1736       C  0.61970447  0.74047753  0.36542788    -0.03400
C1737       C  0.61911183  0.74140650  0.34321588    -0.08700
C1738       C  0.60543955  0.71551950  0.33143753    -0.16300
H1739       H  0.50234342  0.57492077  0.27114614     0.11800
H1740       H  0.52486204  0.62132132  0.29061459     0.11100
H1741       H  0.57665008  0.59393440  0.32591986     0.11000
H1742       H  0.55417725  0.54744188  0.30637117     0.11600
H1743       H  0.58267903  0.66652269  0.37186730     0.11600
H1744       H  0.60639115  0.71147623  0.39256559     0.11600
H1745       H  0.62913671  0.76208804  0.33495300     0.11700
H1746       H  0.60518164  0.71665276  0.31435958     0.10600
C1747       C  0.53113064  0.97376334  0.28731560    -0.03200
C1748       C  0.56044062  0.98274222  0.28311818    -0.09000
C1749       C  0.57446413  0.97016998  0.29395988    -0.16700
C1750       C  0.55940846  0.94866645  0.30922504     0.25500
C1751       C  0.53045375  0.94022186  0.31387024    -0.18300
C1752       C  0.51642837  0.95278117  0.30301470    -0.07200
C1753       C  0.57350307  0.93508374  0.32004009    -0.13700
C1754       C  0.58474338  0.92344800  0.32950017    -0.13400
C1755       C  0.59751128  0.90960552  0.34163921     0.25400
C1756       C  0.59762290  0.91108096  0.36369200    -0.18800
C1757       C  0.60975619  0.89759054  0.37566339    -0.07300
C1758       C  0.62202737  0.88237984  0.36574357    -0.03400
C1759       C  0.62184249  0.88101479  0.34353287    -0.08700
C1760       C  0.60962953  0.89453544  0.33157050    -0.16300
H1761       H  0.57228456  0.99913320  0.27119472     0.11800
H1762       H  0.59691499  0.97700210  0.29029619     0.11100
H1763       H  0.51859473  0.92363560  0.32567660     0.11000
H1764       H  0.99388341  0.94536537  0.30638773     0.11600
H1765       H  0.58829275  0.92265905  0.37165802     0.11600
H1766       H  0.60954732  0.89913866  0.39270990     0.11600
H1767       H  0.63108753  0.86949290  0.33540491     0.11700
H1768       H  0.60962397  0.89321845  0.31449395     0.10600
C1769       C  0.79162221  0.57691109  0.56723399    -0.03200
C1770       C  0.79305115  0.58150803  0.54525919    -0.09000
C1771       C  0.78100807  0.55796249  0.53136339    -0.16700
C1772       C  0.76740104  0.52947142  0.53915270     0.25500
C1773       C  0.76588485  0.52452848  0.56097262    -0.18300
C1774       C  0.77792484  0.54815105  0.57498313    -0.07200
C1775       C  0.75506065  0.50557297  0.52451936    -0.13700
C1776       C  0.74533492  0.98689969  0.51116688    -0.13400
C1777       C  0.73424507  0.96550807  0.49461567     0.25400
C1778       C  0.70550772  0.95393333  0.48777860    -0.18800
C1779       C  0.69456511  0.93275482  0.47191818    -0.07300
C1780       C  0.71227751  0.92286449  0.46273524    -0.03400
C1781       C  0.74133857  0.93511306  0.46943319    -0.08700
C1782       C  0.75223008  0.95631921  0.48526551    -0.16300
H1783       H  0.80337445  0.60334078  0.53873760     0.11800
H1784       H  0.78227476  0.56199691  0.51450630     0.11100
H1785       H  0.75538328  0.50248521  0.56713378     0.11000
H1786       H  0.77651385  0.54392728  0.59180232     0.11600
H1787       H  0.69147523  0.96105465  0.49485453     0.11600
H1788       H  0.67209451  0.92372882  0.46716099     0.11600
H1789       H  0.75554872  0.92800697  0.46267941     0.11700
H1790       H  0.77457962  0.96532065  0.49036437     0.10600
C1791       C  0.58011604  0.78984815  0.46296522    -0.03200
C1792       C  0.56726426  0.80623518  0.46965813    -0.09000
C1793       C  0.54659251  0.79590525  0.48581838    -0.16700
C1794       C  0.53857094  0.76915898  0.49550669     0.25500
C1795       C  0.55073313  0.75239465  0.48866999    -0.18300
C1796       C  0.57136609  0.76263677  0.47248115    -0.07200
C1797       C  0.51769481  0.75885090  0.51235812    -0.13700
C1798       C  0.99926840  0.74989956  0.52584774    -0.13400
C1799       C  0.97536586  0.73830045  0.54041225     0.25400
C1800       C  0.94706258  0.72454572  0.53247384    -0.18800
C1801       C  0.92346511  0.71284188  0.54624648    -0.07300
C1802       C  0.92779820  0.71469929  0.56825846    -0.03400
C1803       C  0.95637887  0.72876461  0.57617161    -0.08700
C1804       C  0.98007473  0.74050612  0.56227301    -0.16300
H1805       H  0.57351428  0.82724908  0.46266144     0.11800
H1806       H  0.53710378  0.80892249  0.49091120     0.11100
H1807       H  0.54450181  0.73156229  0.49599919     0.11000
H1808       H  0.58090372  0.74953477  0.46774985     0.11600
H1809       H  0.94320956  0.72277316  0.51558596     0.11600
H1810       H  0.90178587  0.70223402  0.53958530     0.11600
H1811       H  0.96040028  0.73054974  0.59302190     0.11700
H1812       H  0.00198073  0.75117887  0.56854710     0.10600
C1813       C  0.79098865  0.71226736  0.56561535    -0.03200
C1814       C  0.77936071  0.72956776  0.57273564    -0.09000
C1815       C  0.76769188  0.74108607  0.55830702    -0.16700
C1816       C  0.76745737  0.73532978  0.53668928     0.25500
C1817       C  0.77884790  0.71806371  0.52952780    -0.18300
C1818       C  0.79055404  0.70664107  0.54384314    -0.07200
C1819       C  0.75573601  0.74710260  0.52165288    -0.13700
C1820       C  0.74639539  0.75637697  0.50821816    -0.13400
C1821       C  0.73551317  0.76719190  0.49182650     0.25400
C1822       C  0.70754102  0.74951557  0.48374709    -0.18800
C1823       C  0.69659543  0.76033440  0.46827382    -0.07300
C1824       C  0.71354164  0.78903081  0.46070163    -0.03400
C1825       C  0.74192631  0.80636878  0.46856256    -0.08700
C1826       C  0.75280798  0.79548973  0.48403638    -0.16300
H1827       H  0.77943897  0.73432194  0.58937856     0.11800
H1828       H  0.75892390  0.75448281  0.56398777     0.11100
H1829       H  0.77873909  0.71346362  0.51283738     0.11000
H1830       H  0.79922538  0.69333483  0.53781368     0.11600
H1831       H  0.69404598  0.72751255  0.48961040     0.11600
H1832       H  0.67466732  0.74642996  0.46257236     0.11600
H1833       H  0.75552462  0.82854500  0.46309146     0.11700
H1834       H  0.77455700  0.80928368  0.49012625     0.10600
C1835       C  0.97471139  0.52915976  0.73872192    -0.03200
C1836       C  0.95523322  0.51288082  0.72256398    -0.09000
C1837       C  0.94186184  0.52508821  0.71046949    -0.16700
C1838       C  0.94807558  0.55373268  0.71433782     0.25500
C1839       C  0.96798216  0.57023386  0.73012139    -0.18300
C1840       C  0.98133638  0.55807637  0.74218912    -0.07200
C1841       C  0.93388793  0.56625417  0.70237889    -0.13700
C1842       C  0.92234666  0.57761224  0.69297389    -0.13400
C1843       C  0.90890845  0.59184522  0.68218376     0.25400
C1844       C  0.92537466  0.62140159  0.67685893    -0.18800
C1845       C  0.91240570  0.63526919  0.66630600    -0.07300
C1846       C  0.88272931  0.61970665  0.66092468    -0.03400
C1847       C  0.86631339  0.59004414  0.66653200    -0.08700
C1848       C  0.87933738  0.57624263  0.67708760    -0.16300
H1849       H  0.94990658  0.99056079  0.71965361     0.11800
H1850       H  0.92652230  0.51214177  0.69826472     0.11100
H1851       H  0.97305978  0.59245183  0.73317781     0.11000
H1852       H  0.49671423  0.57116401  0.75432181     0.11600
H1853       H  0.94827850  0.63370434  0.68078040     0.11600
H1854       H  0.92568787  0.65807946  0.66218584     0.11600
H1855       H  0.84344849  0.57739904  0.66260732     0.11700
H1856       H  0.86636831  0.55337348  0.68118711     0.10600
C1857       C  0.56037257  0.53159788  0.73876063    -0.03200
C1858       C  0.56418998  0.51755448  0.72126863    -0.09000
C1859       C  0.59005998  0.53106627  0.70970146    -0.16700
C1860       C  0.61225289  0.55893343  0.71534946     0.25500
C1861       C  0.60815704  0.57359874  0.73223029    -0.18300
C1862       C  0.58227127  0.56011385  0.74376774    -0.07200
C1863       C  0.63938336  0.57222906  0.70406308    -0.13700
C1864       C  0.66221146  0.58312641  0.69473288    -0.13400
C1865       C  0.68939336  0.59615738  0.68351231     0.25400
C1866       C  0.70297631  0.62561105  0.67782145    -0.18800
C1867       C  0.72911361  0.63823604  0.66658213    -0.07300
C1868       C  0.74205343  0.62153095  0.66087907    -0.03400
C1869       C  0.72834196  0.59196715  0.66684496    -0.08700
C1870       C  0.70216926  0.57938557  0.67808265    -0.16300
H1871       H  0.54757524  0.99588077  0.71685940     0.11800
H1872       H  0.59291650  0.51961148  0.69655126     0.11100
H1873       H  0.62507032  0.59529932  0.73661370     0.11000
H1874       H  0.57951105  0.57177229  0.75680875     0.11600
H1875       H  0.69327260  0.63878748  0.68195987     0.11600
H1876       H  0.73906030  0.66103032  0.66224004     0.11600
H1877       H  0.73767796  0.57848515  0.66267750     0.11700
H1878       H  0.69181699  0.55654841  0.68242115     0.10600
C1879       C  0.97250759  0.94295983  0.74009108    -0.03200
C1880       C  0.94284462  0.92346071  0.74362005    -0.09000
C1881       C  0.92848887  0.89734852  0.73229153    -0.16700
C1882       C  0.94363718  0.89060524  0.71727836     0.25500
C1883       C  0.97307419  0.91019719  0.71347521    -0.18300
C1884       C  0.98742322  0.93627338  0.72481679    -0.07200
C1885       C  0.92925002  0.86335745  0.70607178    -0.13700
C1886       C  0.91791143  0.84051297  0.69667104    -0.13400
C1887       C  0.90507431  0.81338210  0.68529518     0.25400
C1888       C  0.92160723  0.80007575  0.68074640    -0.18800
C1889       C  0.90939901  0.77402414  0.66929360    -0.07300
C1890       C  0.88043848  0.76094378  0.66222680    -0.03400
C1891       C  0.86391197  0.77437062  0.66708290    -0.08700
C1892       C  0.87618244  0.80042286  0.67852974    -0.16300
H1893       H  0.93092630  0.92837857  0.75526061     0.11800
H1894       H  0.90569672  0.88234875  0.73535114     0.11100
H1895       H  0.98502518  0.90513184  0.70195285     0.11000
H1896       H  0.51031459  0.95071166  0.72212390     0.11600
H1897       H  0.94400776  0.80994887  0.68592208     0.11600
H1898       H  0.92272209  0.76429579  0.66581606     0.11600
H1899       H  0.84157985  0.76492209  0.66186539     0.11700
H1900       H  0.86320078  0.81055583  0.68196996     0.10600
C1901       C  0.57774694  0.79085338  0.06626194    -0.03200
C1902       C  0.56445767  0.76163601  0.05954057    -0.09000
C1903       C  0.54221285  0.75111097  0.04453664    -0.16700
C1904       C  0.53298960  0.76960969  0.03607146     0.25500
C1905       C  0.54574423  0.79857086  0.04286695    -0.18300
C1906       C  0.56797461  0.80915319  0.05788967    -0.07200
C1907       C  0.51074048  0.75893254  0.02017805    -0.13700
C1908       C  0.99214960  0.74954143  0.00680594    -0.13400
C1909       C  0.96970886  0.73767686  0.99105954     0.25400
C1910       C  0.95763786  0.75420288  0.98351078    -0.18800
C1911       C  0.93513348  0.74227287  0.96870916    -0.07300
C1912       C  0.92442560  0.71361233  0.96128135    -0.03400
C1913       C  0.93703945  0.69734876  0.96874785    -0.08700
C1914       C  0.95952734  0.70933216  0.98356025    -0.16300
H1915       H  0.57149952  0.74700696  0.06564374     0.11800
H1916       H  0.53242412  0.72863480  0.03937087     0.11100
H1917       H  0.53872492  0.81304778  0.03639480     0.11000
H1918       H  0.57781117  0.83177328  0.06267246     0.11600
H1919       H  0.96540869  0.77618605  0.98922265     0.11600
H1920       H  0.92591460  0.75537866  0.96328093     0.11600
H1921       H  0.92928508  0.67523433  0.96337762     0.11700
H1922       H  0.96876714  0.69638345  0.98932587     0.10600
C1923       C  0.79184072  0.57637812  0.96012078    -0.03200
C1924       C  0.76304988  0.56441756  0.96738652    -0.09000
C1925       C  0.75202522  0.54214480  0.98243948    -0.16700
C1926       C  0.76956169  0.53149459  0.99040451     0.25500
C1927       C  0.79803146  0.54281640  0.98300672    -0.18300
C1928       C  0.80913552  0.56512558  0.96794563    -0.07200
C1929       C  0.75848038  0.50938277  0.00648504    -0.13700
C1930       C  0.74898571  0.99103593  0.02009252    -0.13400
C1931       C  0.73735009  0.96892158  0.03615960     0.25400
C1932       C  0.75520543  0.95986721  0.04591990    -0.18800
C1933       C  0.74363408  0.93754286  0.06094373    -0.07300
C1934       C  0.71402756  0.92406147  0.06642254    -0.03400
C1935       C  0.69639289  0.93375315  0.05682433    -0.08700
C1936       C  0.70799969  0.95600436  0.04175049    -0.16300
H1937       H  0.74916690  0.57259184  0.96172239     0.11800
H1938       H  0.72994209  0.53349014  0.98806172     0.11100
H1939       H  0.81175983  0.53466639  0.98907434     0.11000
H1940       H  0.83137753  0.57386384  0.96270245     0.11600
H1941       H  0.77797837  0.96979534  0.04171682     0.11600
H1942       H  0.75777802  0.93060538  0.06806131     0.11600
H1943       H  0.67349237  0.92373137  0.06061169     0.11700
H1944       H  0.69400458  0.96287318  0.03426616     0.10600
C1945       C  0.78610558  0.70929377  0.95921002    -0.03200
C1946       C  0.80032166  0.73924439  0.96402199    -0.09000
C1947       C  0.78818740  0.75014643  0.97847752    -0.16700
C1948       C  0.76177290  0.73128949  0.98834453     0.25500
C1949       C  0.74718853  0.70155101  0.98339227    -0.18300
C1950       C  0.75921825  0.69060058  0.96886827    -0.07200
C1951       C  0.75014244  0.74236363  0.00401465    -0.13700
C1952       C  0.74104883  0.75189144  0.01744989    -0.13400
C1953       C  0.73060982  0.76354776  0.03356748     0.25400
C1954       C  0.70167414  0.74776263  0.04024697    -0.18800
C1955       C  0.69136110  0.75933212  0.05561942    -0.07300
C1956       C  0.70988938  0.78693068  0.06448165    -0.03400
C1957       C  0.73905793  0.80247248  0.05783296    -0.08700
C1958       C  0.74932726  0.79081522  0.04248093    -0.16300
H1959       H  0.82098801  0.75421117  0.95681197     0.11800
H1960       H  0.79962104  0.77321607  0.98218982     0.11100
H1961       H  0.72673567  0.68676965  0.99097326     0.11000
H1962       H  0.74778279  0.66742685  0.96556294     0.11600
H1963       H  0.68701876  0.72662202  0.03344947     0.11600
H1964       H  0.66876893  0.74684620  0.06031541     0.11600
H1965       H  0.75386786  0.82376289  0.06431553     0.11700
H1966       H  0.77179488  0.80317846  0.03743359     0.10600
C1967       C  0.88368370  0.62194366  0.86428909    -0.03200
C1968       C  0.88024376  0.61995637  0.84218800    -0.09000
C1969       C  0.89246528  0.60658512  0.83006323    -0.16700
C1970       C  0.90832545  0.59513668  0.83985938     0.25500
C1971       C  0.91206624  0.59727933  0.86177631    -0.18300
C1972       C  0.89984473  0.61052880  0.87390852    -0.07200
C1973       C  0.92070793  0.58098805  0.82763483    -0.13700
C1974       C  0.93161870  0.56890236  0.81833343    -0.13400
C1975       C  0.94529412  0.55463243  0.80786652     0.25400
C1976       C  0.97437159  0.56320021  0.81218901    -0.18800
C1977       C  0.98797482  0.54995341  0.80165130    -0.07300
C1978       C  0.97270555  0.52815252  0.78659040    -0.03400
C1979       C  0.94327324  0.51901413  0.78277503    -0.08700
C1980       C  0.92967834  0.53226873  0.79330093    -0.16300
H1981       H  0.86790008  0.62846906  0.83429482     0.11800
H1982       H  0.88943574  0.60506360  0.81309361     0.11100
H1983       H  0.92434151  0.58856147  0.86952755     0.11000
H1984       H  0.90300754  0.61174085  0.89085382     0.11600
H1985       H  0.98665222  0.58041805  0.82347645     0.11600
H1986       H  0.51064806  0.55746969  0.80470646     0.11600
H1987       H  0.93101568  0.50200201  0.77134963     0.11700
H1988       H  0.90712493  0.52530572  0.78991491     0.10600
C1989       C  0.56120201  0.52714898  0.78653950    -0.03200
C1990       C  0.56718888  0.54703443  0.80304518    -0.09000
C1991       C  0.59395950  0.55948441  0.81350758    -0.16700
C1992       C  0.61487101  0.55193075  0.80770700     0.25500
C1993       C  0.60855638  0.53119092  0.79184618    -0.18300
C1994       C  0.58180472  0.51872451  0.78141392    -0.07200
C1995       C  0.64284926  0.56569660  0.81790724    -0.13700
C1996       C  0.66589259  0.57755965  0.82699069    -0.13400
C1997       C  0.69231287  0.59168726  0.83916101     0.25400
C1998       C  0.71951752  0.60293974  0.82939008    -0.18800
C1999       C  0.74498959  0.61661980  0.84150822    -0.07300
C2000       C  0.74347018  0.61906740  0.86355571    -0.03400
C2001       C  0.71599198  0.60772687  0.87313901    -0.08700
C2002       C  0.69067218  0.59421438  0.86102469    -0.16300
H2003       H  0.55165748  0.55370424  0.80735591     0.11800
H2004       H  0.59853496  0.57535596  0.82587919     0.11100
H2005       H  0.62442942  0.52494883  0.78735394     0.11000
H2006       H  0.57740762  0.50296883  0.76899422     0.11600
H2007       H  0.72103736  0.60111130  0.81245195     0.11600
H2008       H  0.76579190  0.62505519  0.83366794     0.11600
H2009       H  0.71400188  0.60932585  0.89004320     0.11700
H2010       H  0.66975942  0.58567337  0.86874502     0.10600
C2011       C  0.97598818  0.94384611  0.78777163    -0.03200
C2012       C  0.95591788  0.93967927  0.80372567    -0.09000
C2013       C  0.94239721  0.91352245  0.81514392    -0.16700
C2014       C  0.94906775  0.89148145  0.81082697     0.25500
C2015       C  0.96971344  0.89592706  0.79534608    -0.18300
C2016       C  0.98316856  0.92199077  0.78392310    -0.07200
C2017       C  0.93462584  0.86420054  0.82209374    -0.13700
C2018       C  0.92279334  0.84127691  0.83144945    -0.13400
C2019       C  0.90913529  0.81426927  0.84308069     0.25400
C2020       C  0.91229755  0.81467781  0.86501935    -0.18800
C2021       C  0.89911159  0.78863746  0.87646989    -0.07300
C2022       C  0.88258622  0.76169052  0.86612583    -0.03400
C2023       C  0.87961244  0.76144737  0.84403112    -0.08700
C2024       C  0.89277798  0.78760949  0.83259531    -0.16300
H2025       H  0.95010730  0.95628405  0.80688984     0.11800
H2026       H  0.92651460  0.91034857  0.82713977     0.11100
H2027       H  0.97520134  0.87913907  0.79196274     0.11000
H2028       H  0.49893537  0.92498960  0.77188499     0.11600
H2029       H  0.92495724  0.83515513  0.87329776     0.11600
H2030       H  0.90196652  0.78964240  0.89344450     0.11600
H2031       H  0.86700788  0.74110181  0.83561156     0.11700
H2032       H  0.89019403  0.78704398  0.81559776     0.10600
loop_ 
_geom_bond_atom_site_label_1 
_geom_bond_atom_site_label_2 
_geom_bond_distance 
_geom_bond_site_symmetry_2 
_ccdc_geom_bond_type 
Zn1           O5   1.959       .  S
Zn1           O6   2.017       .  S
Zn1          O10   2.015       .  S
Zn1          O17   2.011       .  S
Zn2           O5   1.953       .  S
Zn2           O7   2.011       .  S
Zn2           O9   2.006       .  S
Zn2          O13   2.003       .  S
Zn3           O5   1.953       .  S
Zn3           O8   2.006       .  S
Zn3          O11   2.011       .  S
Zn3          O14   1.999       .  S
Zn4           O5   1.969       .  S
Zn4          O12   2.038       .  S
Zn4          O15   2.034       .  S
Zn4          O16   2.032       .  S
O6           C18   1.273       .  A
O7           C19   1.272       .  A
O8           C20   1.272       .  A
O9           C18   1.272       .  A
O10          C20   1.273       .  A
O11          C19   1.273       .  A
O12          C21   1.277       .  A
O13          C22   1.273       .  A
O14          C21   1.273       .  A
O15          C22   1.276       .  A
O16          C23   1.276       .  A
O17          C23   1.274       .  A
C18         C399   1.480       .  S
C19         C421   1.480       .  S
C20         C388   1.480       .  S
C21         C498   1.483       .  S
C22         C476   1.482       .  S
C23         C443   1.484       .  S
Zn24         O28   1.936       .  S
Zn24         O29   1.981       .  S
Zn24         O33   1.985       .  S
Zn24         O40   1.983       .  S
Zn25         O28   1.966       .  S
Zn25         O30   2.022       .  S
Zn25         O32   2.033       .  S
Zn25         O36   2.023       .  S
Zn26         O28   1.960       .  S
Zn26         O31   2.031       .  S
Zn26         O34   2.011       .  S
Zn26         O37   2.013       .  S
Zn27         O28   1.963       .  S
Zn27         O35   2.020       .  S
Zn27         O38   2.016       .  S
Zn27         O39   2.029       .  S
O29          C41   1.270       .  A
O30          C42   1.275       .  A
O31          C43   1.274       .  A
O32          C41   1.274       .  A
O33          C43   1.270       .  A
O34          C42   1.274       .  A
O35          C44   1.275       .  A
O36          C45   1.275       .  A
O37          C44   1.274       .  A
O38          C45   1.275       .  A
O39          C46   1.274       .  A
O40          C46   1.270       .  A
C41         C278   1.479       .  S
C42         C366   1.482       .  S
C43         C289   1.479       .  S
C44         C344   1.482       .  S
C45         C322   1.483       .  S
C46         C245   1.479       .  S
C47          H48   1.111       .  S
C47          C52   1.539       .  S
C47        C1577   1.537   1_445  S
C47        C1067   1.540   1_455  S
C49          H50   1.111   1_545  S
C49          C55   1.536       .  S
C49        C1070   1.533   1_455  S
C49        C1580   1.534   1_445  S
C51        C1063   1.540       .  S
C51          C54   1.375       .  D
C51         C454   1.484       .  S
C52          C55   1.376       .  D
C52         C465   1.486       .  S
C53        C1571   1.537       .  S
C53          C56   1.374       .  D
C53         C487   1.482       .  S
C54        C1065   1.533       .  S
C54         C311   1.481       .  S
C55         C333   1.487       .  S
C56        C1573   1.534       .  S
C56         C355   1.480       .  S
Zn57         O61   1.957       .  S
Zn57         O62   2.012       .  S
Zn57         O66   2.009       .  S
Zn57         O73   2.007       .  S
Zn58         O61   1.953       .  S
Zn58         O63   2.009       .  S
Zn58         O65   2.006       .  S
Zn58         O69   1.997       .  S
Zn59         O61   1.953       .  S
Zn59         O64   2.007       .  S
Zn59         O67   2.010       .  S
Zn59         O70   2.006       .  S
Zn60         O61   1.969       .  S
Zn60         O68   2.044       .  S
Zn60         O71   2.039       .  S
Zn60         O72   2.036       .  S
O62          C74   1.272       .  A
O63          C75   1.272       .  A
O64          C76   1.272       .  A
O65          C74   1.272       .  A
O66          C76   1.273       .  A
O67          C75   1.272       .  A
O68          C77   1.277       .  A
O69          C78   1.273       .  A
O70          C77   1.274       .  A
O71          C78   1.277       .  A
O72          C79   1.277       .  A
O73          C79   1.274       .  A
C74         C256   1.480       .  S
C75         C300   1.480       .  S
C76         C267   1.479       .  S
C77         C212   1.486       .  S
C78         C190   1.483       .  S
C79         C234   1.484       .  S
Zn80         O84   1.956       .  S
Zn80         O85   2.016       .  S
Zn80         O89   2.004       .  S
Zn80         O96   2.011       .  S
Zn81         O84   1.954       .  S
Zn81         O86   2.000       .  S
Zn81         O88   2.008       .  S
Zn81         O92   2.009       .  S
Zn82         O84   1.971       .  S
Zn82         O87   2.037       .  S
Zn82         O90   2.039       .  S
Zn82         O93   2.045       .  S
Zn83         O84   1.952       .  S
Zn83         O91   2.002       .  S
Zn83         O94   2.005       .  S
Zn83         O95   2.007       .  S
O85          C97   1.273       .  A
O86          C98   1.273       .  A
O87          C99   1.277       .  A
O88          C97   1.272       .  A
O89          C99   1.273       .  A
O90          C98   1.277       .  A
O91         C100   1.273       .  A
O92         C101   1.272       .  A
O93         C100   1.277       .  A
O94         C101   1.272       .  A
O95         C102   1.272       .  A
O96         C102   1.273       .  A
C97         C432   1.481       .  S
C98         C124   1.483       .  S
C99         C146   1.484       .  S
C100        C157   1.486       .  S
C101        C377   1.479       .  S
C102        C410   1.479       .  S
C103        H104   1.111   1_655  S
C103        C109   1.537   1_655  S
C103       C1632   1.538   1_545  S
C103        C615   1.539   1_645  S
C105        H106   1.111   1_545  S
C105        C112   1.538   1_655  S
C105       C1635   1.536   1_545  S
C105        C618   1.536   1_645  S
C107        C611   1.539   1_455  S
C107        C110   1.375       .  D
C107        C223   1.484       .  S
C108       C1627   1.538       .  S
C108        C111   1.374       .  D
C108        C179   1.485       .  S
C109        C112   1.376       .  D
C109        C201   1.484       .  S
C110        C613   1.536   1_455  S
C110        C168   1.484       .  S
C111       C1629   1.536       .  S
C111        C135   1.482       .  S
C112        C113   1.483       .  S
C113        C114   1.402       .  A
C113        C118   1.406       .  A
C114        C115   1.399       .  A
C114       H1143   1.079   1_455  S
C115        C116   1.401       .  A
C115        H128   1.083       .  S
C116        C117   1.399       .  A
C116        C119   1.439       .  S
C117        C118   1.397       .  A
C117        H129   1.083       .  S
C118        H130   1.083       .  S
C119        C120   1.206       .  T
C120        C121   1.440       .  S
C121        C122   1.401       .  A
C121        C126   1.398       .  A
C122        C123   1.401       .  A
C122        H131   1.083       .  S
C123        C124   1.407       .  A
C123        H132   1.083       .  S
C124        C125   1.409       .  A
C125        C126   1.396       .  A
C125        H133   1.083       .  S
C126        H134   1.084       .  S
H127       C1130   1.079       .  S
C135        C136   1.405       .  A
C135        C140   1.401       .  A
C136        C137   1.399       .  A
C136        H149   1.083       .  S
C137        C138   1.400       .  A
C137        H150   1.083       .  S
C138        C139   1.400       .  A
C138        C141   1.440       .  S
C139        C140   1.398       .  A
C139        H151   1.083       .  S
C140        H660   1.079       .  S
C141        C142   1.206       .  T
C142        C143   1.440       .  S
C143        C144   1.398       .  A
C143        C148   1.401       .  A
C144        C145   1.397       .  A
C144        H153   1.084       .  S
C145        C146   1.409       .  A
C145        H154   1.083       .  S
C146        C147   1.408       .  A
C147        C148   1.401       .  A
C147        H155   1.083       .  S
C148        H156   1.083       .  S
H152        C648   1.079   1_545  S
C157        C158   1.408       .  A
C157        C162   1.409       .  A
C158        C159   1.403       .  A
C158        H171   1.083       .  S
C159        C160   1.402       .  A
C159        H172   1.083       .  S
C160        C161   1.398       .  A
C160        C163   1.443       .  S
C161        C162   1.397       .  A
C161        H173   1.084       .  S
C162        H174   1.083       .  S
C163        C164   1.208       .  T
C164        C165   1.443       .  S
C165        C166   1.403       .  A
C165        C170   1.400       .  A
C166        C167   1.401       .  A
C166        H175   1.083       .  S
C167        C168   1.403       .  A
C167        H176   1.083       .  S
C168        C169   1.406       .  A
C169        C170   1.398       .  A
C169        H177   1.083       .  S
C170        H178   1.083       .  S
C179        C180   1.406       .  A
C179        C184   1.402       .  A
C180        C181   1.398       .  A
C180        H193   1.083       .  S
C181        C182   1.399       .  A
C181        H194   1.083       .  S
C182        C183   1.400       .  A
C182        C185   1.439       .  S
C183        C184   1.399       .  A
C183        H195   1.083       .  S
C184        H196   1.078       .  S
C185        C186   1.206       .  T
C186        C187   1.439       .  S
C187        C188   1.397       .  A
C187        C192   1.401       .  A
C188        C189   1.396       .  A
C188        H197   1.084       .  S
C189        C190   1.409       .  A
C189        H198   1.083       .  S
C190        C191   1.407       .  A
C191        C192   1.401       .  A
C191        H199   1.083       .  S
C192        H200   1.083       .  S
C201        C202   1.406       .  A
C201        C206   1.403       .  A
C202        C203   1.398       .  A
C202        H215   1.083       .  S
C203        C204   1.400       .  A
C203        H216   1.083       .  S
C204        C205   1.403       .  A
C204        C207   1.444       .  S
C205        C206   1.401       .  A
C205        H217   1.083       .  S
C206        H218   1.083       .  S
C207        C208   1.208       .  T
C208        C209   1.444       .  S
C209        C210   1.398       .  A
C209        C214   1.402       .  A
C210        C211   1.397       .  A
C210        H219   1.084       .  S
C211        C212   1.409       .  A
C211        H220   1.083       .  S
C212        C213   1.408       .  A
C213        C214   1.403       .  A
C213        H221   1.083       .  S
C214        H222   1.083       .  S
C223        C224   1.406       .  A
C223        C228   1.402       .  A
C224        C225   1.398       .  A
C224        H237   1.083       .  S
C225        C226   1.400       .  A
C225        H238   1.083       .  S
C226        C227   1.400       .  A
C226        C229   1.440       .  S
C227        C228   1.398       .  A
C227        H239   1.083       .  S
C228       H1256   1.078   1_455  S
C229        C230   1.206       .  T
C230        C231   1.441       .  S
C231        C232   1.398       .  A
C231        C236   1.401       .  A
C232        C233   1.397       .  A
C232        H241   1.084       .  S
C233        C234   1.408       .  A
C233        H242   1.083       .  S
C234        C235   1.408       .  A
C235        C236   1.401       .  A
C235        H243   1.083       .  S
C236        H244   1.083       .  S
H240       C1244   1.078       .  S
C245        C246   1.408       .  A
C245        C250   1.407       .  A
C246        C247   1.393       .  A
C246        H259   1.083       .  S
C247        C248   1.396       .  A
C247        H260   1.084       .  S
C248        C249   1.401       .  A
C248        C251   1.435       .  S
C249        C250   1.400       .  A
C249        H261   1.083       .  S
C250        H262   1.083       .  S
C251        C760   1.204   1_545  T
C252        C253   1.436       .  S
C252        C759   1.204       .  T
C253        C254   1.399       .  A
C253        C258   1.398       .  A
C254        C255   1.397       .  A
C254        H263   1.084       .  S
C255        C256   1.407       .  A
C255        H264   1.083       .  S
C256        C257   1.408       .  A
C257        C258   1.397       .  A
C257        H265   1.083       .  S
C258        H266   1.084       .  S
C267        C268   1.407       .  A
C267        C272   1.408       .  A
C268        C269   1.397       .  A
C268        H281   1.083       .  S
C269        C270   1.399       .  A
C269        H282   1.084       .  S
C270        C271   1.398       .  A
C270        C273   1.435       .  S
C271        C272   1.397       .  A
C271        H283   1.084       .  S
C272        H284   1.083       .  S
C273       C1290   1.203   1_455  T
C274        C275   1.435       .  S
C274       C1289   1.203       .  T
C275        C276   1.396       .  A
C275        C280   1.401       .  A
C276        C277   1.392       .  A
C276        H285   1.084       .  S
C277        C278   1.408       .  A
C277        H286   1.083       .  S
C278        C279   1.407       .  A
C279        C280   1.401       .  A
C279        H287   1.083       .  S
C280        H288   1.083       .  S
C289        C290   1.407       .  A
C289        C294   1.408       .  A
C290        C291   1.400       .  A
C290        H303   1.083       .  S
C291        C292   1.401       .  A
C291        H304   1.083       .  S
C292        C293   1.397       .  A
C292        C295   1.436       .  S
C293        C294   1.394       .  A
C293        H305   1.084       .  S
C294        H306   1.083       .  S
C295        C296   1.204       .  T
C296        C297   1.436       .  S
C297        C298   1.399       .  A
C297        C302   1.399       .  A
C298        C299   1.397       .  A
C298        H307   1.084       .  S
C299        C300   1.408       .  A
C299        H308   1.083       .  S
C300        C301   1.408       .  A
C301        C302   1.397       .  A
C301        H309   1.083       .  S
C302        H310   1.084       .  S
C311        C312   1.404       .  A
C311        C316   1.404       .  A
C312        C313   1.400       .  A
C312        H833   1.083   1_545  S
C313        C314   1.401       .  A
C313        H326   1.083       .  S
C314        C315   1.399       .  A
C314        C317   1.439       .  S
C315        C316   1.396       .  A
C315        H327   1.083       .  S
C316       H1344   1.083       .  S
C317        C318   1.206       .  T
C318        C319   1.439       .  S
C319        C320   1.400       .  A
C319        C324   1.399       .  A
C320        C321   1.399       .  A
C320        H329   1.084       .  S
C321        C322   1.408       .  A
C321        H330   1.083       .  S
C322        C323   1.408       .  A
C323        C324   1.398       .  A
C323        H331   1.083       .  S
C324        H332   1.084       .  S
H325        C820   1.083       .  S
H328       C1332   1.083       .  S
C333        C334   1.403       .  A
C333        C338   1.407       .  A
C334        C335   1.398       .  A
C334        H855   1.078   1_545  S
C335        C336   1.399       .  A
C335        H348   1.083       .  S
C336        C337   1.399       .  A
C336        C339   1.438       .  S
C337        C338   1.397       .  A
C337        H349   1.083       .  S
C338        H350   1.083       .  S
C339        C340   1.205       .  T
C340        C341   1.438       .  S
C341        C342   1.398       .  A
C341        C346   1.400       .  A
C342        C343   1.397       .  A
C342        H351   1.084       .  S
C343        C344   1.408       .  A
C343        H352   1.083       .  S
C344        C345   1.408       .  A
C345        C346   1.399       .  A
C345        H353   1.083       .  S
C346        H354   1.084       .  S
H347        C842   1.078       .  S
C355        C356   1.405       .  A
C355        C360   1.401       .  A
C356        C357   1.398       .  A
C356        H369   1.083       .  S
C357        C358   1.400       .  A
C357        H370   1.083       .  S
C358        C359   1.400       .  A
C358        C361   1.438       .  S
C359        C360   1.397       .  A
C359        H371   1.084       .  S
C360       H1388   1.079       .  S
C361        C362   1.205       .  T
C362        C363   1.438       .  S
C363        C364   1.399       .  A
C363        C368   1.399       .  A
C364        C365   1.398       .  A
C364        H373   1.084       .  S
C365        C366   1.407       .  A
C365        H374   1.083       .  S
C366        C367   1.408       .  A
C367        C368   1.398       .  A
C367        H375   1.083       .  S
C368        H376   1.084       .  S
H372       C1376   1.079   1_455  S
C377        C378   1.407       .  A
C377        C382   1.408       .  A
C378        C379   1.397       .  A
C378        H391   1.083       .  S
C379        C380   1.399       .  A
C379        H392   1.084       .  S
C380        C381   1.398       .  A
C380        C383   1.436       .  S
C381        C382   1.397       .  A
C381        H393   1.084       .  S
C382        H394   1.083       .  S
C383       C1400   1.204   1_455  T
C384        C385   1.436   1_554  S
C384       C1399   1.204       .  T
C385        C386   1.398       .  A
C385        C390   1.399       .  A
C386        C387   1.397       .  A
C386        H395   1.084       .  S
C387        C388   1.408       .  A
C387        H396   1.083       .  S
C388        C389   1.407       .  A
C389        C390   1.397       .  A
C389        H397   1.083       .  S
C390        H398   1.084       .  S
C399        C400   1.408       .  A
C399        C404   1.408       .  A
C400        C401   1.397       .  A
C400        H413   1.083       .  S
C401        C402   1.398       .  A
C401        H414   1.084       .  S
C402        C403   1.399       .  A
C402        C405   1.436   1_556  S
C403        C404   1.398       .  A
C403        H415   1.084       .  S
C404        H416   1.083       .  S
C405        C914   1.204   1_545  T
C406        C407   1.436       .  S
C406        C913   1.204       .  T
C407        C408   1.399       .  A
C407        C412   1.399       .  A
C408        C409   1.397       .  A
C408        H417   1.084       .  S
C409        C410   1.407       .  A
C409        H418   1.083       .  S
C410        C411   1.407       .  A
C411        C412   1.397       .  A
C411        H419   1.083       .  S
C412        H420   1.084       .  S
C421        C422   1.407       .  A
C421        C426   1.408       .  A
C422        C423   1.397       .  A
C422        H435   1.083       .  S
C423        C424   1.399       .  A
C423        H436   1.084       .  S
C424        C425   1.399       .  A
C424        C427   1.437   1_556  S
C425        C426   1.398       .  A
C425        H437   1.084       .  S
C426        H438   1.083       .  S
C427        C428   1.205       .  T
C428        C429   1.437       .  S
C429        C430   1.398       .  A
C429        C434   1.399       .  A
C430        C431   1.397       .  A
C430        H439   1.084       .  S
C431        C432   1.408       .  A
C431        H440   1.083       .  S
C432        C433   1.407       .  A
C433        C434   1.398       .  A
C433        H441   1.083       .  S
C434        H442   1.084       .  S
C443        C444   1.408       .  A
C443        C448   1.408       .  A
C444        C445   1.401       .  A
C444        H457   1.083       .  S
C445        C446   1.401       .  A
C445        H458   1.083       .  S
C446        C447   1.398       .  A
C446        C449   1.441       .  S
C447        C448   1.397       .  A
C447        H459   1.084       .  S
C448        H460   1.083       .  S
C449        C450   1.207       .  T
C450        C451   1.441       .  S
C451        C452   1.401       .  A
C451        C456   1.400       .  A
C452        C453   1.399       .  A
C452        H461   1.083       .  S
C453        C454   1.402       .  A
C453       H1478   1.080       .  S
C454        C455   1.406       .  A
C455        C456   1.399       .  A
C455        H463   1.083       .  S
C456        H464   1.083       .  S
H462       C1469   1.080   1_455  S
C465        C466   1.402       .  A
C465        C470   1.407       .  A
C466        C467   1.399       .  A
C466        H479   1.079       .  S
C467        C468   1.401       .  A
C467        H480   1.083       .  S
C468        C469   1.399       .  A
C468        C471   1.440       .  S
C469        C470   1.398       .  A
C469        H481   1.083       .  S
C470        H482   1.083       .  S
C471        C472   1.206       .  T
C472        C473   1.440       .  S
C473        C474   1.401       .  A
C473        C478   1.398       .  A
C474        C475   1.402       .  A
C474        H483   1.083       .  S
C475        C476   1.408       .  A
C475        H484   1.083       .  S
C476        C477   1.408       .  A
C477        C478   1.395       .  A
C477        H485   1.083       .  S
C478        H486   1.084       .  S
C487        C488   1.403       .  A
C487        C492   1.405       .  A
C488        C489   1.400       .  A
C488        H501   1.083       .  S
C489        C490   1.402       .  A
C489        H502   1.083       .  S
C490        C491   1.399       .  A
C490        C493   1.440       .  S
C491        C492   1.397       .  A
C491        H503   1.083       .  S
C492       H1520   1.083       .  S
C493        C494   1.206       .  T
C494        C495   1.440       .  S
C495        C496   1.398       .  A
C495        C500   1.401       .  A
C496        C497   1.397       .  A
C496        H505   1.084       .  S
C497        C498   1.409       .  A
C497        H506   1.083       .  S
C498        C499   1.407       .  A
C499        C500   1.401       .  A
C499        H507   1.083       .  S
C500        H508   1.083       .  S
H504       C1508   1.083       .  S
Zn509       O513   1.959       .  S
Zn509       O514   2.017       .  S
Zn509       O518   2.015       .  S
Zn509       O525   2.011       .  S
Zn510       O513   1.953       .  S
Zn510       O515   2.011       .  S
Zn510       O517   2.006       .  S
Zn510       O521   2.003       .  S
Zn511       O513   1.953       .  S
Zn511       O516   2.006       .  S
Zn511       O519   2.011       .  S
Zn511       O522   1.999       .  S
Zn512       O513   1.969       .  S
Zn512       O520   2.038       .  S
Zn512       O523   2.034       .  S
Zn512       O524   2.032       .  S
O514        C526   1.273       .  A
O515        C527   1.272       .  A
O516        C528   1.272       .  A
O517        C526   1.272       .  A
O518        C528   1.273       .  A
O519        C527   1.273       .  A
O520        C529   1.277       .  A
O521        C530   1.273       .  A
O522        C529   1.273       .  A
O523        C530   1.276       .  A
O524        C531   1.276       .  A
O525        C531   1.274       .  A
C526        C907   1.480       .  S
C527        C929   1.480       .  S
C528        C896   1.480       .  S
C529       C1006   1.483       .  S
C530        C984   1.482       .  S
C531        C951   1.484       .  S
Zn532       O536   1.936       .  S
Zn532       O537   1.981       .  S
Zn532       O541   1.985       .  S
Zn532       O548   1.983       .  S
Zn533       O536   1.966       .  S
Zn533       O538   2.022       .  S
Zn533       O540   2.033       .  S
Zn533       O544   2.023       .  S
Zn534       O536   1.960       .  S
Zn534       O539   2.031       .  S
Zn534       O542   2.011       .  S
Zn534       O545   2.013       .  S
Zn535       O536   1.963       .  S
Zn535       O543   2.020       .  S
Zn535       O546   2.016       .  S
Zn535       O547   2.029       .  S
O537        C549   1.270       .  A
O538        C550   1.275       .  A
O539        C551   1.274       .  A
O540        C549   1.274       .  A
O541        C551   1.270       .  A
O542        C550   1.274       .  A
O543        C552   1.275       .  A
O544        C553   1.275       .  A
O545        C552   1.274       .  A
O546        C553   1.275       .  A
O547        C554   1.274       .  A
O548        C554   1.270       .  A
C549        C786   1.479       .  S
C550        C874   1.482       .  S
C551        C797   1.479       .  S
C552        C852   1.482       .  S
C553        C830   1.483       .  S
C554        C753   1.479       .  S
C555        H556   1.111       .  S
C555       C1069   1.537   1_455  S
C555        C560   1.539       .  S
C555       C1575   1.540   1_455  S
C557        H558   1.111       .  S
C557        C563   1.536       .  S
C557       C1578   1.533   1_455  S
C557       C1072   1.534   1_455  S
C559       C1571   1.540       .  S
C559        C562   1.375       .  D
C559        C962   1.484       .  S
C560        C563   1.376       .  D
C560        C973   1.486       .  S
C561       C1063   1.537   1_565  S
C561        C564   1.374       .  D
C561        C995   1.482       .  S
C562       C1573   1.533       .  S
C562        C819   1.481       .  S
C563        C841   1.487       .  S
C564       C1065   1.534   1_565  S
C564        C863   1.480       .  S
Zn565       O569   1.957       .  S
Zn565       O570   2.012       .  S
Zn565       O574   2.009       .  S
Zn565       O581   2.007       .  S
Zn566       O569   1.953       .  S
Zn566       O571   2.009       .  S
Zn566       O573   2.006       .  S
Zn566       O577   1.997       .  S
Zn567       O569   1.953       .  S
Zn567       O572   2.007       .  S
Zn567       O575   2.010       .  S
Zn567       O578   2.006       .  S
Zn568       O569   1.969       .  S
Zn568       O576   2.044       .  S
Zn568       O579   2.039       .  S
Zn568       O580   2.036       .  S
O570        C582   1.272       .  A
O571        C583   1.272       .  A
O572        C584   1.272       .  A
O573        C582   1.272       .  A
O574        C584   1.273       .  A
O575        C583   1.272       .  A
O576        C585   1.277       .  A
O577        C586   1.273       .  A
O578        C585   1.274       .  A
O579        C586   1.277       .  A
O580        C587   1.277       .  A
O581        C587   1.274       .  A
C582        C764   1.480       .  S
C583        C808   1.480       .  S
C584        C775   1.479       .  S
C585        C720   1.486       .  S
C586        C698   1.483       .  S
C587        C742   1.484       .  S
Zn588       O592   1.956       .  S
Zn588       O593   2.016       .  S
Zn588       O597   2.004       .  S
Zn588       O604   2.011       .  S
Zn589       O592   1.954       .  S
Zn589       O594   2.000       .  S
Zn589       O596   2.008       .  S
Zn589       O600   2.008       .  S
Zn590       O592   1.971       .  S
Zn590       O595   2.037       .  S
Zn590       O598   2.039       .  S
Zn590       O601   2.045       .  S
Zn591       O592   1.952       .  S
Zn591       O599   2.002       .  S
Zn591       O602   2.005       .  S
Zn591       O603   2.007       .  S
O593        C605   1.273       .  A
O594        C606   1.273       .  A
O595        C607   1.277       .  A
O596        C605   1.272       .  A
O597        C607   1.273       .  A
O598        C606   1.277       .  A
O599        C608   1.273       .  A
O600        C609   1.272       .  A
O601        C608   1.277       .  A
O602        C609   1.272       .  A
O603        C610   1.272       .  A
O604        C610   1.273       .  A
C605        C940   1.481       .  S
C606        C632   1.483       .  S
C607        C654   1.484       .  S
C608        C665   1.486       .  S
C609        C885   1.479       .  S
C610        C918   1.479       .  S
C611        H612   1.111   1_655  S
C611        C617   1.537   1_655  S
C611       C1124   1.538       .  S
C613        H614   1.111       .  S
C613       C1127   1.536       .  S
C613        C620   1.538   1_655  S
C615        C618   1.375       .  D
C615        C731   1.484       .  S
C616       C1119   1.538   1_565  S
C616        C619   1.374       .  D
C616        C687   1.485       .  S
C617        C620   1.376       .  D
C617        C709   1.484       .  S
C618        C676   1.484       .  S
C619       C1121   1.536   1_565  S
C619        C643   1.482       .  S
C620        C621   1.483       .  S
C621        C622   1.402       .  A
C621        C626   1.406       .  A
C622        C623   1.399       .  A
C622       H1651   1.079   1_455  S
C623        C624   1.401       .  A
C623        H636   1.083       .  S
C624        C625   1.399       .  A
C624        C627   1.439       .  S
C625        C626   1.397       .  A
C625        H637   1.083       .  S
C626        H638   1.083       .  S
C627        C628   1.206       .  T
C628        C629   1.440       .  S
C629        C630   1.401       .  A
C629        C634   1.398       .  A
C630        C631   1.401       .  A
C630        H639   1.083       .  S
C631        C632   1.407       .  A
C631        H640   1.083       .  S
C632        C633   1.409       .  A
C633        C634   1.396       .  A
C633        H641   1.083       .  S
C634        H642   1.084       .  S
H635       C1638   1.079       .  S
C643        C644   1.405       .  A
C643        C648   1.401       .  A
C644        C645   1.399       .  A
C644        H657   1.083       .  S
C645        C646   1.400       .  A
C645        H658   1.083       .  S
C646        C647   1.400       .  A
C646        C649   1.440       .  S
C647        C648   1.398       .  A
C647        H659   1.083       .  S
C649        C650   1.206       .  T
C650        C651   1.440       .  S
C651        C652   1.398       .  A
C651        C656   1.401       .  A
C652        C653   1.397       .  A
C652        H661   1.084       .  S
C653        C654   1.409       .  A
C653        H662   1.083       .  S
C654        C655   1.408       .  A
C655        C656   1.401       .  A
C655        H663   1.083       .  S
C656        H664   1.083       .  S
C665        C666   1.408       .  A
C665        C670   1.409       .  A
C666        C667   1.403       .  A
C666        H679   1.083       .  S
C667        C668   1.402       .  A
C667        H680   1.083       .  S
C668        C669   1.398       .  A
C668        C671   1.443       .  S
C669        C670   1.397       .  A
C669        H681   1.084       .  S
C670        H682   1.083       .  S
C671        C672   1.208       .  T
C672        C673   1.443       .  S
C673        C674   1.403       .  A
C673        C678   1.400       .  A
C674        C675   1.401       .  A
C674        H683   1.083       .  S
C675        C676   1.403       .  A
C675        H684   1.083   1_565  S
C676        C677   1.406       .  A
C677        C678   1.398       .  A
C677        H685   1.083       .  S
C678        H686   1.083       .  S
C687        C688   1.406       .  A
C687        C692   1.402       .  A
C688        C689   1.398       .  A
C688        H701   1.083       .  S
C689        C690   1.399       .  A
C689        H702   1.083       .  S
C690        C691   1.400       .  A
C690        C693   1.439       .  S
C691        C692   1.399       .  A
C691        H703   1.083       .  S
C692        H704   1.078       .  S
C693        C694   1.206       .  T
C694        C695   1.439       .  S
C695        C696   1.397       .  A
C695        C700   1.401       .  A
C696        C697   1.396       .  A
C696        H705   1.084       .  S
C697        C698   1.409       .  A
C697        H706   1.083       .  S
C698        C699   1.407       .  A
C699        C700   1.401       .  A
C699        H707   1.083       .  S
C700        H708   1.083       .  S
C709        C710   1.406       .  A
C709        C714   1.403       .  A
C710        C711   1.398       .  A
C710        H723   1.083       .  S
C711        C712   1.400       .  A
C711        H724   1.083       .  S
C712        C713   1.402       .  A
C712        C715   1.444       .  S
C713        C714   1.401       .  A
C713        H725   1.083       .  S
C714        H726   1.083       .  S
C715        C716   1.208       .  T
C716        C717   1.444       .  S
C717        C718   1.398       .  A
C717        C722   1.402       .  A
C718        C719   1.397       .  A
C718        H727   1.084       .  S
C719        C720   1.409       .  A
C719        H728   1.083       .  S
C720        C721   1.408       .  A
C721        C722   1.403       .  A
C721        H729   1.083       .  S
C722        H730   1.083       .  S
C731        C732   1.406       .  A
C731        C736   1.402       .  A
C732        C733   1.398       .  A
C732        H745   1.083       .  S
C733        C734   1.400       .  A
C733        H746   1.083       .  S
C734        C735   1.400       .  A
C734        C737   1.440       .  S
C735        C736   1.398       .  A
C735        H747   1.083       .  S
C736       H1764   1.078   1_455  S
C737        C738   1.206       .  T
C738        C739   1.441       .  S
C739        C740   1.398       .  A
C739        C744   1.401       .  A
C740        C741   1.397       .  A
C740        H749   1.084       .  S
C741        C742   1.408       .  A
C741        H750   1.083       .  S
C742        C743   1.408       .  A
C743        C744   1.401       .  A
C743        H751   1.083       .  S
C744        H752   1.083       .  S
H748       C1752   1.078       .  S
C753        C754   1.408       .  A
C753        C758   1.407       .  A
C754        C755   1.393       .  A
C754        H767   1.083       .  S
C755        C756   1.396       .  A
C755        H768   1.084       .  S
C756        C757   1.401       .  A
C756        C759   1.435       .  S
C757        C758   1.400       .  A
C757        H769   1.083       .  S
C758        H770   1.083       .  S
C760        C761   1.436       .  S
C761        C762   1.399       .  A
C761        C766   1.398       .  A
C762        C763   1.397       .  A
C762        H771   1.084       .  S
C763        C764   1.407       .  A
C763        H772   1.083       .  S
C764        C765   1.408       .  A
C765        C766   1.397       .  A
C765        H773   1.083       .  S
C766        H774   1.084       .  S
C775        C776   1.407       .  A
C775        C780   1.408       .  A
C776        C777   1.397       .  A
C776        H789   1.083       .  S
C777        C778   1.399       .  A
C777        H790   1.084       .  S
C778        C779   1.398       .  A
C778        C781   1.435       .  S
C779        C780   1.397       .  A
C779        H791   1.084       .  S
C780        H792   1.083       .  S
C781       C1798   1.203   1_455  T
C782        C783   1.435       .  S
C782       C1797   1.203       .  T
C783        C784   1.396       .  A
C783        C788   1.401       .  A
C784        C785   1.392       .  A
C784        H793   1.084       .  S
C785        C786   1.408       .  A
C785        H794   1.083       .  S
C786        C787   1.407       .  A
C787        C788   1.401       .  A
C787        H795   1.083       .  S
C788        H796   1.083       .  S
C797        C798   1.407       .  A
C797        C802   1.408       .  A
C798        C799   1.400       .  A
C798        H811   1.083       .  S
C799        C800   1.401       .  A
C799        H812   1.083       .  S
C800        C801   1.397       .  A
C800        C803   1.436       .  S
C801        C802   1.394       .  A
C801        H813   1.084       .  S
C802        H814   1.083       .  S
C803        C804   1.204       .  T
C804        C805   1.436       .  S
C805        C806   1.399       .  A
C805        C810   1.399       .  A
C806        C807   1.397       .  A
C806        H815   1.084       .  S
C807        C808   1.408       .  A
C807        H816   1.083       .  S
C808        C809   1.408       .  A
C809        C810   1.397       .  A
C809        H817   1.083       .  S
C810        H818   1.084       .  S
C819        C820   1.404       .  A
C819        C824   1.404       .  A
C820        C821   1.400       .  A
C821        C822   1.401       .  A
C821        H834   1.083       .  S
C822        C823   1.399       .  A
C822        C825   1.439       .  S
C823        C824   1.396       .  A
C823        H835   1.083       .  S
C824       H1852   1.083       .  S
C825        C826   1.206       .  T
C826        C827   1.439       .  S
C827        C828   1.400       .  A
C827        C832   1.399       .  A
C828        C829   1.399       .  A
C828        H837   1.084       .  S
C829        C830   1.408       .  A
C829        H838   1.083       .  S
C830        C831   1.408       .  A
C831        C832   1.398       .  A
C831        H839   1.083       .  S
C832        H840   1.084       .  S
H836       C1840   1.083       .  S
C841        C842   1.403       .  A
C841        C846   1.407       .  A
C842        C843   1.398       .  A
C843        C844   1.399       .  A
C843        H856   1.083       .  S
C844        C845   1.399       .  A
C844        C847   1.438       .  S
C845        C846   1.397       .  A
C845        H857   1.083       .  S
C846        H858   1.083       .  S
C847        C848   1.205       .  T
C848        C849   1.438       .  S
C849        C850   1.398       .  A
C849        C854   1.400       .  A
C850        C851   1.397       .  A
C850        H859   1.084       .  S
C851        C852   1.408       .  A
C851        H860   1.083       .  S
C852        C853   1.408       .  A
C853        C854   1.399       .  A
C853        H861   1.083       .  S
C854        H862   1.084       .  S
C863        C864   1.405       .  A
C863        C868   1.401       .  A
C864        C865   1.398       .  A
C864        H877   1.083       .  S
C865        C866   1.400       .  A
C865        H878   1.083       .  S
C866        C867   1.400       .  A
C866        C869   1.438       .  S
C867        C868   1.397       .  A
C867        H879   1.083       .  S
C868       H1896   1.079       .  S
C869        C870   1.205       .  T
C870        C871   1.438       .  S
C871        C872   1.399       .  A
C871        C876   1.399       .  A
C872        C873   1.398       .  A
C872        H881   1.084       .  S
C873        C874   1.407       .  A
C873        H882   1.083       .  S
C874        C875   1.408       .  A
C875        C876   1.398       .  A
C875        H883   1.083       .  S
C876        H884   1.084       .  S
H880       C1884   1.079   1_455  S
C885        C886   1.407       .  A
C885        C890   1.408       .  A
C886        C887   1.397       .  A
C886        H899   1.083       .  S
C887        C888   1.399       .  A
C887        H900   1.084       .  S
C888        C889   1.398       .  A
C888        C891   1.436       .  S
C889        C890   1.397       .  A
C889        H901   1.084       .  S
C890        H902   1.083       .  S
C891       C1908   1.204   1_455  T
C892        C893   1.436   1_554  S
C892       C1907   1.204       .  T
C893        C894   1.398       .  A
C893        C898   1.399       .  A
C894        C895   1.397       .  A
C894        H903   1.084       .  S
C895        C896   1.408       .  A
C895        H904   1.083       .  S
C896        C897   1.407       .  A
C897        C898   1.397       .  A
C897        H905   1.083       .  S
C898        H906   1.084       .  S
C907        C908   1.408       .  A
C907        C912   1.408       .  A
C908        C909   1.397       .  A
C908        H921   1.083       .  S
C909        C910   1.398       .  A
C909        H922   1.084       .  S
C910        C911   1.399       .  A
C910        C913   1.436   1_556  S
C911        C912   1.398       .  A
C911        H923   1.084       .  S
C912        H924   1.083       .  S
C914        C915   1.436       .  S
C915        C916   1.399       .  A
C915        C920   1.399       .  A
C916        C917   1.397       .  A
C916        H925   1.084       .  S
C917        C918   1.407       .  A
C917        H926   1.083       .  S
C918        C919   1.407       .  A
C919        C920   1.397       .  A
C919        H927   1.083       .  S
C920        H928   1.084       .  S
C929        C930   1.407       .  A
C929        C934   1.408       .  A
C930        C931   1.397       .  A
C930        H943   1.083       .  S
C931        C932   1.399       .  A
C931        H944   1.084       .  S
C932        C933   1.399       .  A
C932        C935   1.437   1_556  S
C933        C934   1.398       .  A
C933        H945   1.084       .  S
C934        H946   1.083       .  S
C935        C936   1.205       .  T
C936        C937   1.437       .  S
C937        C938   1.398       .  A
C937        C942   1.399       .  A
C938        C939   1.397       .  A
C938        H947   1.084       .  S
C939        C940   1.408       .  A
C939        H948   1.083       .  S
C940        C941   1.407       .  A
C941        C942   1.398       .  A
C941        H949   1.083       .  S
C942        H950   1.084       .  S
C951        C952   1.408       .  A
C951        C956   1.408       .  A
C952        C953   1.401       .  A
C952        H965   1.083       .  S
C953        C954   1.401       .  A
C953        H966   1.083       .  S
C954        C955   1.398       .  A
C954        C957   1.441       .  S
C955        C956   1.397       .  A
C955        H967   1.084       .  S
C956        H968   1.083       .  S
C957        C958   1.207       .  T
C958        C959   1.441       .  S
C959        C960   1.401       .  A
C959        C964   1.400       .  A
C960        C961   1.399       .  A
C960        H969   1.083       .  S
C961        C962   1.402       .  A
C961       H1986   1.080       .  S
C962        C963   1.406       .  A
C963        C964   1.399       .  A
C963        H971   1.083       .  S
C964        H972   1.083       .  S
H970       C1977   1.080   1_455  S
C973        C974   1.402       .  A
C973        C978   1.407       .  A
C974        C975   1.399       .  A
C974        H987   1.079       .  S
C975        C976   1.401       .  A
C975        H988   1.083       .  S
C976        C977   1.399       .  A
C976        C979   1.440       .  S
C977        C978   1.398       .  A
C977        H989   1.083       .  S
C978        H990   1.083       .  S
C979        C980   1.206       .  T
C980        C981   1.440       .  S
C981        C982   1.401       .  A
C981        C986   1.398       .  A
C982        C983   1.402       .  A
C982        H991   1.083       .  S
C983        C984   1.408       .  A
C983        H992   1.083       .  S
C984        C985   1.408       .  A
C985        C986   1.396       .  A
C985        H993   1.083       .  S
C986        H994   1.084       .  S
C995        C996   1.403       .  A
C995       C1000   1.405       .  A
C996        C997   1.400       .  A
C996       H1009   1.083       .  S
C997        C998   1.402       .  A
C997       H1010   1.083       .  S
C998        C999   1.399       .  A
C998       C1001   1.440       .  S
C999       C1000   1.397       .  A
C999       H1011   1.083       .  S
C1000      H2028   1.083       .  S
C1001      C1002   1.206       .  T
C1002      C1003   1.440       .  S
C1003      C1004   1.398       .  A
C1003      C1008   1.401       .  A
C1004      C1005   1.397       .  A
C1004      H1013   1.084       .  S
C1005      C1006   1.409       .  A
C1005      H1014   1.083       .  S
C1006      C1007   1.407       .  A
C1007      C1008   1.401       .  A
C1007      H1015   1.083       .  S
C1008      H1016   1.083       .  S
H1012      C2016   1.083       .  S
Zn1017     O1021   1.959       .  S
Zn1017     O1022   2.017       .  S
Zn1017     O1026   2.015       .  S
Zn1017     O1033   2.011       .  S
Zn1018     O1021   1.953       .  S
Zn1018     O1023   2.011       .  S
Zn1018     O1025   2.006       .  S
Zn1018     O1029   2.003       .  S
Zn1019     O1021   1.953       .  S
Zn1019     O1024   2.006       .  S
Zn1019     O1027   2.011       .  S
Zn1019     O1030   1.999       .  S
Zn1020     O1021   1.969       .  S
Zn1020     O1028   2.038       .  S
Zn1020     O1031   2.034       .  S
Zn1020     O1032   2.032       .  S
O1022      C1034   1.273       .  A
O1023      C1035   1.272       .  A
O1024      C1036   1.272       .  A
O1025      C1034   1.272       .  A
O1026      C1036   1.273       .  A
O1027      C1035   1.273       .  A
O1028      C1037   1.277       .  A
O1029      C1038   1.273       .  A
O1030      C1037   1.273       .  A
O1031      C1038   1.276       .  A
O1032      C1039   1.276       .  A
O1033      C1039   1.274       .  A
C1034      C1415   1.480       .  S
C1035      C1437   1.480       .  S
C1036      C1404   1.480       .  S
C1037      C1514   1.483       .  S
C1038      C1492   1.482       .  S
C1039      C1459   1.484       .  S
Zn1040     O1044   1.936       .  S
Zn1040     O1045   1.981       .  S
Zn1040     O1049   1.985       .  S
Zn1040     O1056   1.983       .  S
Zn1041     O1044   1.966       .  S
Zn1041     O1046   2.022       .  S
Zn1041     O1048   2.033       .  S
Zn1041     O1052   2.023       .  S
Zn1042     O1044   1.960       .  S
Zn1042     O1047   2.031       .  S
Zn1042     O1050   2.011       .  S
Zn1042     O1053   2.013       .  S
Zn1043     O1044   1.963       .  S
Zn1043     O1051   2.020       .  S
Zn1043     O1054   2.016       .  S
Zn1043     O1055   2.029       .  S
O1045      C1057   1.270       .  A
O1046      C1058   1.275       .  A
O1047      C1059   1.274       .  A
O1048      C1057   1.274       .  A
O1049      C1059   1.270       .  A
O1050      C1058   1.274       .  A
O1051      C1060   1.275       .  A
O1052      C1061   1.275       .  A
O1053      C1060   1.274       .  A
O1054      C1061   1.275       .  A
O1055      C1062   1.274       .  A
O1056      C1062   1.270       .  A
C1057      C1294   1.479       .  S
C1058      C1382   1.482       .  S
C1059      C1305   1.479       .  S
C1060      C1360   1.482       .  S
C1061      C1338   1.483       .  S
C1062      C1261   1.479       .  S
C1063      H1064   1.111       .  S
C1063      C1068   1.539       .  S
C1065      H1066   1.111   1_545  S
C1065      C1071   1.536       .  S
C1067      C1070   1.375       .  D
C1067      C1470   1.484       .  S
C1068      C1071   1.376       .  D
C1068      C1481   1.486       .  S
C1069      C1072   1.374       .  D
C1069      C1503   1.482       .  S
C1070      C1327   1.481       .  S
C1071      C1349   1.487       .  S
C1072      C1371   1.480       .  S
Zn1073     O1077   1.957       .  S
Zn1073     O1078   2.012       .  S
Zn1073     O1082   2.009       .  S
Zn1073     O1089   2.007       .  S
Zn1074     O1077   1.953       .  S
Zn1074     O1079   2.009       .  S
Zn1074     O1081   2.006       .  S
Zn1074     O1085   1.997       .  S
Zn1075     O1077   1.953       .  S
Zn1075     O1080   2.007       .  S
Zn1075     O1083   2.010       .  S
Zn1075     O1086   2.006       .  S
Zn1076     O1077   1.969       .  S
Zn1076     O1084   2.044       .  S
Zn1076     O1087   2.039       .  S
Zn1076     O1088   2.036       .  S
O1078      C1090   1.272       .  A
O1079      C1091   1.272       .  A
O1080      C1092   1.272       .  A
O1081      C1090   1.272       .  A
O1082      C1092   1.273       .  A
O1083      C1091   1.272       .  A
O1084      C1093   1.277       .  A
O1085      C1094   1.273       .  A
O1086      C1093   1.274       .  A
O1087      C1094   1.277       .  A
O1088      C1095   1.277       .  A
O1089      C1095   1.274       .  A
C1090      C1272   1.480       .  S
C1091      C1316   1.480       .  S
C1092      C1283   1.479       .  S
C1093      C1228   1.486       .  S
C1094      C1206   1.483       .  S
C1095      C1250   1.484       .  S
Zn1096     O1100   1.956       .  S
Zn1096     O1101   2.016       .  S
Zn1096     O1105   2.004       .  S
Zn1096     O1112   2.011       .  S
Zn1097     O1100   1.954       .  S
Zn1097     O1102   2.000       .  S
Zn1097     O1104   2.008       .  S
Zn1097     O1108   2.009       .  S
Zn1098     O1100   1.971       .  S
Zn1098     O1103   2.037       .  S
Zn1098     O1106   2.039       .  S
Zn1098     O1109   2.045       .  S
Zn1099     O1100   1.952       .  S
Zn1099     O1107   2.002       .  S
Zn1099     O1110   2.005       .  S
Zn1099     O1111   2.007       .  S
O1101      C1113   1.273       .  A
O1102      C1114   1.273       .  A
O1103      C1115   1.277       .  A
O1104      C1113   1.272       .  A
O1105      C1115   1.273       .  A
O1106      C1114   1.277       .  A
O1107      C1116   1.273       .  A
O1108      C1117   1.272       .  A
O1109      C1116   1.277       .  A
O1110      C1117   1.272       .  A
O1111      C1118   1.272       .  A
O1112      C1118   1.273       .  A
C1113      C1448   1.481       .  S
C1114      C1140   1.483       .  S
C1115      C1162   1.484       .  S
C1116      C1173   1.486       .  S
C1117      C1393   1.479       .  S
C1118      C1426   1.479       .  S
C1119      H1120   1.111       .  S
C1119      C1125   1.537       .  S
C1119      C1631   1.539   1_545  S
C1121      H1122   1.111   1_545  S
C1121      C1634   1.536   1_545  S
C1121      C1128   1.538       .  S
C1123      C1627   1.539       .  S
C1123      C1126   1.375       .  D
C1123      C1239   1.484       .  S
C1124      C1127   1.374       .  D
C1124      C1195   1.485       .  S
C1125      C1128   1.376       .  D
C1125      C1217   1.484       .  S
C1126      C1629   1.536       .  S
C1126      C1184   1.484       .  S
C1127      C1151   1.482       .  S
C1128      C1129   1.483       .  S
C1129      C1130   1.402       .  A
C1129      C1134   1.406       .  A
C1130      C1131   1.399       .  A
C1131      C1132   1.401       .  A
C1131      H1144   1.083       .  S
C1132      C1133   1.399       .  A
C1132      C1135   1.439       .  S
C1133      C1134   1.397       .  A
C1133      H1145   1.083       .  S
C1134      H1146   1.083       .  S
C1135      C1136   1.206       .  T
C1136      C1137   1.440       .  S
C1137      C1138   1.401       .  A
C1137      C1142   1.398       .  A
C1138      C1139   1.401       .  A
C1138      H1147   1.083       .  S
C1139      C1140   1.407       .  A
C1139      H1148   1.083       .  S
C1140      C1141   1.409       .  A
C1141      C1142   1.396       .  A
C1141      H1149   1.083       .  S
C1142      H1150   1.084       .  S
C1151      C1152   1.405       .  A
C1151      C1156   1.401       .  A
C1152      C1153   1.399       .  A
C1152      H1165   1.083       .  S
C1153      C1154   1.400       .  A
C1153      H1166   1.083       .  S
C1154      C1155   1.400       .  A
C1154      C1157   1.440       .  S
C1155      C1156   1.398       .  A
C1155      H1167   1.083       .  S
C1156      H1676   1.079       .  S
C1157      C1158   1.206       .  T
C1158      C1159   1.440       .  S
C1159      C1160   1.398       .  A
C1159      C1164   1.401       .  A
C1160      C1161   1.397       .  A
C1160      H1169   1.084       .  S
C1161      C1162   1.409       .  A
C1161      H1170   1.083       .  S
C1162      C1163   1.408       .  A
C1163      C1164   1.401       .  A
C1163      H1171   1.083       .  S
C1164      H1172   1.083       .  S
H1168      C1664   1.079   1_545  S
C1173      C1174   1.408       .  A
C1173      C1178   1.409       .  A
C1174      C1175   1.403       .  A
C1174      H1187   1.083       .  S
C1175      C1176   1.402       .  A
C1175      H1188   1.083       .  S
C1176      C1177   1.398       .  A
C1176      C1179   1.443       .  S
C1177      C1178   1.397       .  A
C1177      H1189   1.084       .  S
C1178      H1190   1.083       .  S
C1179      C1180   1.208       .  T
C1180      C1181   1.443       .  S
C1181      C1182   1.403       .  A
C1181      C1186   1.400       .  A
C1182      C1183   1.401       .  A
C1182      H1191   1.083       .  S
C1183      C1184   1.403       .  A
C1183      H1192   1.083       .  S
C1184      C1185   1.406       .  A
C1185      C1186   1.398       .  A
C1185      H1193   1.083       .  S
C1186      H1194   1.083       .  S
C1195      C1196   1.406       .  A
C1195      C1200   1.402       .  A
C1196      C1197   1.398       .  A
C1196      H1209   1.083       .  S
C1197      C1198   1.399       .  A
C1197      H1210   1.083       .  S
C1198      C1199   1.400       .  A
C1198      C1201   1.439       .  S
C1199      C1200   1.399       .  A
C1199      H1211   1.083       .  S
C1200      H1212   1.078       .  S
C1201      C1202   1.206       .  T
C1202      C1203   1.439       .  S
C1203      C1204   1.397       .  A
C1203      C1208   1.401       .  A
C1204      C1205   1.396       .  A
C1204      H1213   1.084       .  S
C1205      C1206   1.409       .  A
C1205      H1214   1.083       .  S
C1206      C1207   1.407       .  A
C1207      C1208   1.401       .  A
C1207      H1215   1.083       .  S
C1208      H1216   1.083       .  S
C1217      C1218   1.406       .  A
C1217      C1222   1.403       .  A
C1218      C1219   1.398       .  A
C1218      H1231   1.083       .  S
C1219      C1220   1.400       .  A
C1219      H1232   1.083       .  S
C1220      C1221   1.403       .  A
C1220      C1223   1.444       .  S
C1221      C1222   1.401       .  A
C1221      H1233   1.083       .  S
C1222      H1234   1.083       .  S
C1223      C1224   1.208       .  T
C1224      C1225   1.444       .  S
C1225      C1226   1.398       .  A
C1225      C1230   1.402       .  A
C1226      C1227   1.397       .  A
C1226      H1235   1.084       .  S
C1227      C1228   1.409       .  A
C1227      H1236   1.083       .  S
C1228      C1229   1.408       .  A
C1229      C1230   1.403       .  A
C1229      H1237   1.083       .  S
C1230      H1238   1.083       .  S
C1239      C1240   1.406       .  A
C1239      C1244   1.402       .  A
C1240      C1241   1.398       .  A
C1240      H1253   1.083       .  S
C1241      C1242   1.400       .  A
C1241      H1254   1.083       .  S
C1242      C1243   1.400       .  A
C1242      C1245   1.440       .  S
C1243      C1244   1.398       .  A
C1243      H1255   1.083       .  S
C1245      C1246   1.206       .  T
C1246      C1247   1.441       .  S
C1247      C1248   1.398       .  A
C1247      C1252   1.401       .  A
C1248      C1249   1.397       .  A
C1248      H1257   1.084       .  S
C1249      C1250   1.408       .  A
C1249      H1258   1.083       .  S
C1250      C1251   1.408       .  A
C1251      C1252   1.401       .  A
C1251      H1259   1.083       .  S
C1252      H1260   1.083       .  S
C1261      C1262   1.408       .  A
C1261      C1266   1.407       .  A
C1262      C1263   1.393       .  A
C1262      H1275   1.083       .  S
C1263      C1264   1.396       .  A
C1263      H1276   1.084       .  S
C1264      C1265   1.401       .  A
C1264      C1267   1.435       .  S
C1265      C1266   1.400       .  A
C1265      H1277   1.083       .  S
C1266      H1278   1.083       .  S
C1267      C1776   1.204   1_545  T
C1268      C1269   1.436       .  S
C1268      C1775   1.204       .  T
C1269      C1270   1.399       .  A
C1269      C1274   1.398       .  A
C1270      C1271   1.397       .  A
C1270      H1279   1.084       .  S
C1271      C1272   1.407       .  A
C1271      H1280   1.083       .  S
C1272      C1273   1.408       .  A
C1273      C1274   1.397       .  A
C1273      H1281   1.083       .  S
C1274      H1282   1.084       .  S
C1283      C1284   1.407       .  A
C1283      C1288   1.408       .  A
C1284      C1285   1.397       .  A
C1284      H1297   1.083       .  S
C1285      C1286   1.399       .  A
C1285      H1298   1.084       .  S
C1286      C1287   1.398       .  A
C1286      C1289   1.435       .  S
C1287      C1288   1.397       .  A
C1287      H1299   1.084       .  S
C1288      H1300   1.083       .  S
C1290      C1291   1.435       .  S
C1291      C1292   1.396       .  A
C1291      C1296   1.401       .  A
C1292      C1293   1.392       .  A
C1292      H1301   1.084       .  S
C1293      C1294   1.408       .  A
C1293      H1302   1.083       .  S
C1294      C1295   1.407       .  A
C1295      C1296   1.401       .  A
C1295      H1303   1.083       .  S
C1296      H1304   1.083   1_655  S
C1305      C1306   1.407       .  A
C1305      C1310   1.408       .  A
C1306      C1307   1.400       .  A
C1306      H1319   1.083       .  S
C1307      C1308   1.401       .  A
C1307      H1320   1.083       .  S
C1308      C1309   1.397       .  A
C1308      C1311   1.436       .  S
C1309      C1310   1.394       .  A
C1309      H1321   1.084       .  S
C1310      H1322   1.083       .  S
C1311      C1312   1.204       .  T
C1312      C1313   1.436       .  S
C1313      C1314   1.399       .  A
C1313      C1318   1.399       .  A
C1314      C1315   1.397       .  A
C1314      H1323   1.084       .  S
C1315      C1316   1.408       .  A
C1315      H1324   1.083       .  S
C1316      C1317   1.408       .  A
C1317      C1318   1.397       .  A
C1317      H1325   1.083       .  S
C1318      H1326   1.084       .  S
C1327      C1328   1.404       .  A
C1327      C1332   1.404       .  A
C1328      C1329   1.400       .  A
C1328      H1849   1.083   1_545  S
C1329      C1330   1.401       .  A
C1329      H1342   1.083       .  S
C1330      C1331   1.399       .  A
C1330      C1333   1.439       .  S
C1331      C1332   1.396       .  A
C1331      H1343   1.083       .  S
C1333      C1334   1.206       .  T
C1334      C1335   1.439       .  S
C1335      C1336   1.400       .  A
C1335      C1340   1.399       .  A
C1336      C1337   1.399       .  A
C1336      H1345   1.084       .  S
C1337      C1338   1.408       .  A
C1337      H1346   1.083       .  S
C1338      C1339   1.408       .  A
C1339      C1340   1.398       .  A
C1339      H1347   1.083       .  S
C1340      H1348   1.084       .  S
H1341      C1836   1.083       .  S
C1349      C1350   1.403       .  A
C1349      C1354   1.407       .  A
C1350      C1351   1.398       .  A
C1350      H1871   1.078   1_545  S
C1351      C1352   1.399       .  A
C1351      H1364   1.083       .  S
C1352      C1353   1.399       .  A
C1352      C1355   1.438       .  S
C1353      C1354   1.397       .  A
C1353      H1365   1.083       .  S
C1354      H1366   1.083       .  S
C1355      C1356   1.205       .  T
C1356      C1357   1.438       .  S
C1357      C1358   1.398       .  A
C1357      C1362   1.400       .  A
C1358      C1359   1.397       .  A
C1358      H1367   1.084       .  S
C1359      C1360   1.408       .  A
C1359      H1368   1.083       .  S
C1360      C1361   1.408       .  A
C1361      C1362   1.399       .  A
C1361      H1369   1.083       .  S
C1362      H1370   1.084       .  S
H1363      C1858   1.078       .  S
C1371      C1372   1.405       .  A
C1371      C1376   1.401       .  A
C1372      C1373   1.398       .  A
C1372      H1385   1.083       .  S
C1373      C1374   1.400       .  A
C1373      H1386   1.083       .  S
C1374      C1375   1.400       .  A
C1374      C1377   1.438       .  S
C1375      C1376   1.397       .  A
C1375      H1387   1.084       .  S
C1377      C1378   1.205       .  T
C1378      C1379   1.438       .  S
C1379      C1380   1.399       .  A
C1379      C1384   1.399       .  A
C1380      C1381   1.398       .  A
C1380      H1389   1.084       .  S
C1381      C1382   1.407       .  A
C1381      H1390   1.083       .  S
C1382      C1383   1.408       .  A
C1383      C1384   1.398       .  A
C1383      H1391   1.083       .  S
C1384      H1392   1.084       .  S
C1393      C1394   1.407       .  A
C1393      C1398   1.408       .  A
C1394      C1395   1.397       .  A
C1394      H1407   1.083       .  S
C1395      C1396   1.399       .  A
C1395      H1408   1.084       .  S
C1396      C1397   1.398       .  A
C1396      C1399   1.436       .  S
C1397      C1398   1.397       .  A
C1397      H1409   1.084       .  S
C1398      H1410   1.083       .  S
C1400      C1401   1.436   1_554  S
C1401      C1402   1.398       .  A
C1401      C1406   1.399       .  A
C1402      C1403   1.397       .  A
C1402      H1411   1.084       .  S
C1403      C1404   1.408       .  A
C1403      H1412   1.083       .  S
C1404      C1405   1.407       .  A
C1405      C1406   1.397       .  A
C1405      H1413   1.083       .  S
C1406      H1414   1.084       .  S
C1415      C1416   1.408       .  A
C1415      C1420   1.408       .  A
C1416      C1417   1.397       .  A
C1416      H1429   1.083       .  S
C1417      C1418   1.398       .  A
C1417      H1430   1.084       .  S
C1418      C1419   1.399       .  A
C1418      C1421   1.436   1_556  S
C1419      C1420   1.398       .  A
C1419      H1431   1.084       .  S
C1420      H1432   1.083       .  S
C1421      C1930   1.204   1_545  T
C1422      C1423   1.436       .  S
C1422      C1929   1.204       .  T
C1423      C1424   1.399       .  A
C1423      C1428   1.399       .  A
C1424      C1425   1.397       .  A
C1424      H1433   1.084       .  S
C1425      C1426   1.407       .  A
C1425      H1434   1.083       .  S
C1426      C1427   1.407       .  A
C1427      C1428   1.397       .  A
C1427      H1435   1.083       .  S
C1428      H1436   1.084       .  S
C1437      C1438   1.407       .  A
C1437      C1442   1.408       .  A
C1438      C1439   1.397       .  A
C1438      H1451   1.083       .  S
C1439      C1440   1.399       .  A
C1439      H1452   1.084       .  S
C1440      C1441   1.399       .  A
C1440      C1443   1.437   1_556  S
C1441      C1442   1.398       .  A
C1441      H1453   1.084       .  S
C1442      H1454   1.083       .  S
C1443      C1444   1.205       .  T
C1444      C1445   1.437       .  S
C1445      C1446   1.398       .  A
C1445      C1450   1.399       .  A
C1446      C1447   1.397       .  A
C1446      H1455   1.084       .  S
C1447      C1448   1.408       .  A
C1447      H1456   1.083       .  S
C1448      C1449   1.407       .  A
C1449      C1450   1.398       .  A
C1449      H1457   1.083       .  S
C1450      H1458   1.084       .  S
C1459      C1460   1.408       .  A
C1459      C1464   1.408       .  A
C1460      C1461   1.401       .  A
C1460      H1473   1.083       .  S
C1461      C1462   1.401       .  A
C1461      H1474   1.083       .  S
C1462      C1463   1.398       .  A
C1462      C1465   1.441       .  S
C1463      C1464   1.397       .  A
C1463      H1475   1.084       .  S
C1464      H1476   1.083       .  S
C1465      C1466   1.207       .  T
C1466      C1467   1.441       .  S
C1467      C1468   1.401       .  A
C1467      C1472   1.400       .  A
C1468      C1469   1.399       .  A
C1468      H1477   1.083       .  S
C1469      C1470   1.402       .  A
C1470      C1471   1.406       .  A
C1471      C1472   1.399       .  A
C1471      H1479   1.083       .  S
C1472      H1480   1.083       .  S
C1481      C1482   1.402       .  A
C1481      C1486   1.407       .  A
C1482      C1483   1.399       .  A
C1482      H1495   1.079       .  S
C1483      C1484   1.401       .  A
C1483      H1496   1.083       .  S
C1484      C1485   1.399       .  A
C1484      C1487   1.440       .  S
C1485      C1486   1.398       .  A
C1485      H1497   1.083       .  S
C1486      H1498   1.083       .  S
C1487      C1488   1.206       .  T
C1488      C1489   1.440       .  S
C1489      C1490   1.401       .  A
C1489      C1494   1.398       .  A
C1490      C1491   1.402       .  A
C1490      H1499   1.083       .  S
C1491      C1492   1.408       .  A
C1491      H1500   1.083       .  S
C1492      C1493   1.408       .  A
C1493      C1494   1.396       .  A
C1493      H1501   1.083       .  S
C1494      H1502   1.084       .  S
C1503      C1504   1.403       .  A
C1503      C1508   1.405       .  A
C1504      C1505   1.400       .  A
C1504      H1517   1.083       .  S
C1505      C1506   1.402       .  A
C1505      H1518   1.083       .  S
C1506      C1507   1.399       .  A
C1506      C1509   1.440       .  S
C1507      C1508   1.397       .  A
C1507      H1519   1.083       .  S
C1509      C1510   1.206       .  T
C1510      C1511   1.440       .  S
C1511      C1512   1.398       .  A
C1511      C1516   1.401       .  A
C1512      C1513   1.397       .  A
C1512      H1521   1.084       .  S
C1513      C1514   1.409       .  A
C1513      H1522   1.083       .  S
C1514      C1515   1.407       .  A
C1515      C1516   1.401       .  A
C1515      H1523   1.083       .  S
C1516      H1524   1.083       .  S
Zn1525     O1529   1.959       .  S
Zn1525     O1530   2.017       .  S
Zn1525     O1534   2.015       .  S
Zn1525     O1541   2.011       .  S
Zn1526     O1529   1.953       .  S
Zn1526     O1531   2.011       .  S
Zn1526     O1533   2.006       .  S
Zn1526     O1537   2.003       .  S
Zn1527     O1529   1.953       .  S
Zn1527     O1532   2.006       .  S
Zn1527     O1535   2.011       .  S
Zn1527     O1538   1.999       .  S
Zn1528     O1529   1.969       .  S
Zn1528     O1536   2.038       .  S
Zn1528     O1539   2.034       .  S
Zn1528     O1540   2.032       .  S
O1530      C1542   1.273       .  A
O1531      C1543   1.272       .  A
O1532      C1544   1.272       .  A
O1533      C1542   1.272       .  A
O1534      C1544   1.273       .  A
O1535      C1543   1.273       .  A
O1536      C1545   1.277       .  A
O1537      C1546   1.273       .  A
O1538      C1545   1.273       .  A
O1539      C1546   1.276       .  A
O1540      C1547   1.276       .  A
O1541      C1547   1.274       .  A
C1542      C1923   1.480       .  S
C1543      C1945   1.480       .  S
C1544      C1912   1.480       .  S
C1545      C2022   1.483       .  S
C1546      C2000   1.482       .  S
C1547      C1967   1.484       .  S
Zn1548     O1552   1.936       .  S
Zn1548     O1553   1.981       .  S
Zn1548     O1557   1.985       .  S
Zn1548     O1564   1.983       .  S
Zn1549     O1552   1.966       .  S
Zn1549     O1554   2.022       .  S
Zn1549     O1556   2.033       .  S
Zn1549     O1560   2.023       .  S
Zn1550     O1552   1.960       .  S
Zn1550     O1555   2.031       .  S
Zn1550     O1558   2.011       .  S
Zn1550     O1561   2.013       .  S
Zn1551     O1552   1.963       .  S
Zn1551     O1559   2.020       .  S
Zn1551     O1562   2.016       .  S
Zn1551     O1563   2.029       .  S
O1553      C1565   1.270       .  A
O1554      C1566   1.275       .  A
O1555      C1567   1.274       .  A
O1556      C1565   1.274       .  A
O1557      C1567   1.270       .  A
O1558      C1566   1.274       .  A
O1559      C1568   1.275       .  A
O1560      C1569   1.275       .  A
O1561      C1568   1.274       .  A
O1562      C1569   1.275       .  A
O1563      C1570   1.274       .  A
O1564      C1570   1.270       .  A
C1565      C1802   1.479       .  S
C1566      C1890   1.482       .  S
C1567      C1813   1.479       .  S
C1568      C1868   1.482       .  S
C1569      C1846   1.483       .  S
C1570      C1769   1.479       .  S
C1571      H1572   1.111       .  S
C1571      C1576   1.539       .  S
C1573      H1574   1.111       .  S
C1573      C1579   1.536       .  S
C1575      C1578   1.375       .  D
C1575      C1978   1.484       .  S
C1576      C1579   1.376       .  D
C1576      C1989   1.486       .  S
C1577      C1580   1.374       .  D
C1577      C2011   1.482       .  S
C1578      C1835   1.481       .  S
C1579      C1857   1.487       .  S
C1580      C1879   1.480       .  S
Zn1581     O1585   1.957       .  S
Zn1581     O1586   2.012       .  S
Zn1581     O1590   2.009       .  S
Zn1581     O1597   2.007       .  S
Zn1582     O1585   1.953       .  S
Zn1582     O1587   2.009       .  S
Zn1582     O1589   2.006       .  S
Zn1582     O1593   1.997       .  S
Zn1583     O1585   1.953       .  S
Zn1583     O1588   2.007       .  S
Zn1583     O1591   2.010       .  S
Zn1583     O1594   2.006       .  S
Zn1584     O1585   1.969       .  S
Zn1584     O1592   2.044       .  S
Zn1584     O1595   2.039       .  S
Zn1584     O1596   2.036       .  S
O1586      C1598   1.272       .  A
O1587      C1599   1.272       .  A
O1588      C1600   1.272       .  A
O1589      C1598   1.272       .  A
O1590      C1600   1.273       .  A
O1591      C1599   1.272       .  A
O1592      C1601   1.277       .  A
O1593      C1602   1.273       .  A
O1594      C1601   1.274       .  A
O1595      C1602   1.277       .  A
O1596      C1603   1.277       .  A
O1597      C1603   1.274       .  A
C1598      C1780   1.480       .  S
C1599      C1824   1.480       .  S
C1600      C1791   1.479       .  S
C1601      C1736   1.486       .  S
C1602      C1714   1.483       .  S
C1603      C1758   1.484       .  S
Zn1604     O1608   1.956       .  S
Zn1604     O1609   2.016       .  S
Zn1604     O1613   2.004       .  S
Zn1604     O1620   2.011       .  S
Zn1605     O1608   1.954       .  S
Zn1605     O1610   2.000       .  S
Zn1605     O1612   2.008       .  S
Zn1605     O1616   2.008       .  S
Zn1606     O1608   1.971       .  S
Zn1606     O1611   2.037       .  S
Zn1606     O1614   2.039       .  S
Zn1606     O1617   2.045       .  S
Zn1607     O1608   1.952       .  S
Zn1607     O1615   2.002       .  S
Zn1607     O1618   2.005       .  S
Zn1607     O1619   2.007       .  S
O1609      C1621   1.273       .  A
O1610      C1622   1.273       .  A
O1611      C1623   1.277       .  A
O1612      C1621   1.272       .  A
O1613      C1623   1.273       .  A
O1614      C1622   1.277       .  A
O1615      C1624   1.273       .  A
O1616      C1625   1.272       .  A
O1617      C1624   1.277       .  A
O1618      C1625   1.272       .  A
O1619      C1626   1.272       .  A
O1620      C1626   1.273       .  A
C1621      C1956   1.481       .  S
C1622      C1648   1.483       .  S
C1623      C1670   1.484       .  S
C1624      C1681   1.486       .  S
C1625      C1901   1.479       .  S
C1626      C1934   1.479       .  S
C1627      H1628   1.111       .  S
C1627      C1633   1.537       .  S
C1629      H1630   1.111       .  S
C1629      C1636   1.538       .  S
C1631      C1634   1.375       .  D
C1631      C1747   1.484       .  S
C1632      C1635   1.374       .  D
C1632      C1703   1.485       .  S
C1633      C1636   1.376       .  D
C1633      C1725   1.484       .  S
C1634      C1692   1.484       .  S
C1635      C1659   1.482       .  S
C1636      C1637   1.483       .  S
C1637      C1638   1.402       .  A
C1637      C1642   1.406       .  A
C1638      C1639   1.399       .  A
C1639      C1640   1.401       .  A
C1639      H1652   1.083       .  S
C1640      C1641   1.399       .  A
C1640      C1643   1.439       .  S
C1641      C1642   1.397       .  A
C1641      H1653   1.083       .  S
C1642      H1654   1.083       .  S
C1643      C1644   1.206       .  T
C1644      C1645   1.440       .  S
C1645      C1646   1.401       .  A
C1645      C1650   1.398       .  A
C1646      C1647   1.401       .  A
C1646      H1655   1.083       .  S
C1647      C1648   1.407       .  A
C1647      H1656   1.083       .  S
C1648      C1649   1.409       .  A
C1649      C1650   1.396       .  A
C1649      H1657   1.083       .  S
C1650      H1658   1.084       .  S
C1659      C1660   1.405       .  A
C1659      C1664   1.401       .  A
C1660      C1661   1.399       .  A
C1660      H1673   1.083       .  S
C1661      C1662   1.400       .  A
C1661      H1674   1.083       .  S
C1662      C1663   1.400       .  A
C1662      C1665   1.440       .  S
C1663      C1664   1.398       .  A
C1663      H1675   1.083       .  S
C1665      C1666   1.206       .  T
C1666      C1667   1.440       .  S
C1667      C1668   1.398       .  A
C1667      C1672   1.401       .  A
C1668      C1669   1.397       .  A
C1668      H1677   1.084       .  S
C1669      C1670   1.409       .  A
C1669      H1678   1.083       .  S
C1670      C1671   1.408       .  A
C1671      C1672   1.401       .  A
C1671      H1679   1.083       .  S
C1672      H1680   1.083       .  S
C1681      C1682   1.408       .  A
C1681      C1686   1.409       .  A
C1682      C1683   1.403       .  A
C1682      H1695   1.083       .  S
C1683      C1684   1.402       .  A
C1683      H1696   1.083       .  S
C1684      C1685   1.398       .  A
C1684      C1687   1.443       .  S
C1685      C1686   1.397       .  A
C1685      H1697   1.084       .  S
C1686      H1698   1.083       .  S
C1687      C1688   1.208       .  T
C1688      C1689   1.443       .  S
C1689      C1690   1.403       .  A
C1689      C1694   1.400       .  A
C1690      C1691   1.401       .  A
C1690      H1699   1.083       .  S
C1691      C1692   1.403       .  A
C1691      H1700   1.083   1_565  S
C1692      C1693   1.406       .  A
C1693      C1694   1.398       .  A
C1693      H1701   1.083       .  S
C1694      H1702   1.083       .  S
C1703      C1704   1.406       .  A
C1703      C1708   1.402       .  A
C1704      C1705   1.398       .  A
C1704      H1717   1.083       .  S
C1705      C1706   1.399       .  A
C1705      H1718   1.083       .  S
C1706      C1707   1.400       .  A
C1706      C1709   1.439       .  S
C1707      C1708   1.399       .  A
C1707      H1719   1.083       .  S
C1708      H1720   1.078       .  S
C1709      C1710   1.206       .  T
C1710      C1711   1.439       .  S
C1711      C1712   1.397       .  A
C1711      C1716   1.401       .  A
C1712      C1713   1.396       .  A
C1712      H1721   1.084       .  S
C1713      C1714   1.409       .  A
C1713      H1722   1.083       .  S
C1714      C1715   1.407       .  A
C1715      C1716   1.401       .  A
C1715      H1723   1.083       .  S
C1716      H1724   1.083       .  S
C1725      C1726   1.406       .  A
C1725      C1730   1.403       .  A
C1726      C1727   1.398       .  A
C1726      H1739   1.083       .  S
C1727      C1728   1.400       .  A
C1727      H1740   1.083       .  S
C1728      C1729   1.402       .  A
C1728      C1731   1.444       .  S
C1729      C1730   1.401       .  A
C1729      H1741   1.083       .  S
C1730      H1742   1.083       .  S
C1731      C1732   1.208       .  T
C1732      C1733   1.444       .  S
C1733      C1734   1.398       .  A
C1733      C1738   1.402       .  A
C1734      C1735   1.397       .  A
C1734      H1743   1.084       .  S
C1735      C1736   1.409       .  A
C1735      H1744   1.083       .  S
C1736      C1737   1.408       .  A
C1737      C1738   1.403       .  A
C1737      H1745   1.083       .  S
C1738      H1746   1.083       .  S
C1747      C1748   1.406       .  A
C1747      C1752   1.402       .  A
C1748      C1749   1.398       .  A
C1748      H1761   1.083       .  S
C1749      C1750   1.400       .  A
C1749      H1762   1.083       .  S
C1750      C1751   1.400       .  A
C1750      C1753   1.440       .  S
C1751      C1752   1.398       .  A
C1751      H1763   1.083       .  S
C1753      C1754   1.206       .  T
C1754      C1755   1.441       .  S
C1755      C1756   1.398       .  A
C1755      C1760   1.401       .  A
C1756      C1757   1.397       .  A
C1756      H1765   1.084       .  S
C1757      C1758   1.408       .  A
C1757      H1766   1.083       .  S
C1758      C1759   1.408       .  A
C1759      C1760   1.401       .  A
C1759      H1767   1.083       .  S
C1760      H1768   1.083       .  S
C1769      C1770   1.408       .  A
C1769      C1774   1.407       .  A
C1770      C1771   1.393       .  A
C1770      H1783   1.083       .  S
C1771      C1772   1.396       .  A
C1771      H1784   1.084       .  S
C1772      C1773   1.401       .  A
C1772      C1775   1.435       .  S
C1773      C1774   1.400       .  A
C1773      H1785   1.083       .  S
C1774      H1786   1.083       .  S
C1776      C1777   1.436       .  S
C1777      C1778   1.399       .  A
C1777      C1782   1.398       .  A
C1778      C1779   1.397       .  A
C1778      H1787   1.084       .  S
C1779      C1780   1.407       .  A
C1779      H1788   1.083       .  S
C1780      C1781   1.408       .  A
C1781      C1782   1.397       .  A
C1781      H1789   1.083       .  S
C1782      H1790   1.084       .  S
C1791      C1792   1.407       .  A
C1791      C1796   1.408       .  A
C1792      C1793   1.397       .  A
C1792      H1805   1.083       .  S
C1793      C1794   1.399       .  A
C1793      H1806   1.084       .  S
C1794      C1795   1.398       .  A
C1794      C1797   1.435       .  S
C1795      C1796   1.397       .  A
C1795      H1807   1.084       .  S
C1796      H1808   1.083       .  S
C1798      C1799   1.435       .  S
C1799      C1800   1.396       .  A
C1799      C1804   1.401       .  A
C1800      C1801   1.392       .  A
C1800      H1809   1.084       .  S
C1801      C1802   1.408       .  A
C1801      H1810   1.083       .  S
C1802      C1803   1.407       .  A
C1803      C1804   1.401       .  A
C1803      H1811   1.083       .  S
C1804      H1812   1.083   1_655  S
C1813      C1814   1.407       .  A
C1813      C1818   1.408       .  A
C1814      C1815   1.400       .  A
C1814      H1827   1.083       .  S
C1815      C1816   1.401       .  A
C1815      H1828   1.083       .  S
C1816      C1817   1.397       .  A
C1816      C1819   1.436       .  S
C1817      C1818   1.394       .  A
C1817      H1829   1.084       .  S
C1818      H1830   1.083       .  S
C1819      C1820   1.204       .  T
C1820      C1821   1.436       .  S
C1821      C1822   1.399       .  A
C1821      C1826   1.399       .  A
C1822      C1823   1.397       .  A
C1822      H1831   1.084       .  S
C1823      C1824   1.408       .  A
C1823      H1832   1.083       .  S
C1824      C1825   1.408       .  A
C1825      C1826   1.397       .  A
C1825      H1833   1.083       .  S
C1826      H1834   1.084       .  S
C1835      C1836   1.404       .  A
C1835      C1840   1.404       .  A
C1836      C1837   1.400       .  A
C1837      C1838   1.401       .  A
C1837      H1850   1.083       .  S
C1838      C1839   1.399       .  A
C1838      C1841   1.439       .  S
C1839      C1840   1.396       .  A
C1839      H1851   1.083       .  S
C1841      C1842   1.206       .  T
C1842      C1843   1.439       .  S
C1843      C1844   1.400       .  A
C1843      C1848   1.399       .  A
C1844      C1845   1.399       .  A
C1844      H1853   1.084       .  S
C1845      C1846   1.408       .  A
C1845      H1854   1.083       .  S
C1846      C1847   1.408       .  A
C1847      C1848   1.398       .  A
C1847      H1855   1.083       .  S
C1848      H1856   1.084       .  S
C1857      C1858   1.403       .  A
C1857      C1862   1.407       .  A
C1858      C1859   1.398       .  A
C1859      C1860   1.399       .  A
C1859      H1872   1.083       .  S
C1860      C1861   1.399       .  A
C1860      C1863   1.438       .  S
C1861      C1862   1.397       .  A
C1861      H1873   1.083       .  S
C1862      H1874   1.083       .  S
C1863      C1864   1.205       .  T
C1864      C1865   1.438       .  S
C1865      C1866   1.398       .  A
C1865      C1870   1.400       .  A
C1866      C1867   1.397       .  A
C1866      H1875   1.084       .  S
C1867      C1868   1.408       .  A
C1867      H1876   1.083       .  S
C1868      C1869   1.408       .  A
C1869      C1870   1.399       .  A
C1869      H1877   1.083       .  S
C1870      H1878   1.084       .  S
C1879      C1880   1.405       .  A
C1879      C1884   1.401       .  A
C1880      C1881   1.398       .  A
C1880      H1893   1.083       .  S
C1881      C1882   1.400       .  A
C1881      H1894   1.083       .  S
C1882      C1883   1.400       .  A
C1882      C1885   1.438       .  S
C1883      C1884   1.397       .  A
C1883      H1895   1.084       .  S
C1885      C1886   1.205       .  T
C1886      C1887   1.438       .  S
C1887      C1888   1.399       .  A
C1887      C1892   1.399       .  A
C1888      C1889   1.398       .  A
C1888      H1897   1.084       .  S
C1889      C1890   1.407       .  A
C1889      H1898   1.083       .  S
C1890      C1891   1.408       .  A
C1891      C1892   1.398       .  A
C1891      H1899   1.083       .  S
C1892      H1900   1.084       .  S
C1901      C1902   1.407       .  A
C1901      C1906   1.408       .  A
C1902      C1903   1.397       .  A
C1902      H1915   1.083       .  S
C1903      C1904   1.399       .  A
C1903      H1916   1.084       .  S
C1904      C1905   1.398       .  A
C1904      C1907   1.436       .  S
C1905      C1906   1.397       .  A
C1905      H1917   1.084       .  S
C1906      H1918   1.083       .  S
C1908      C1909   1.436   1_554  S
C1909      C1910   1.398       .  A
C1909      C1914   1.399       .  A
C1910      C1911   1.397       .  A
C1910      H1919   1.084       .  S
C1911      C1912   1.408       .  A
C1911      H1920   1.083       .  S
C1912      C1913   1.407       .  A
C1913      C1914   1.397       .  A
C1913      H1921   1.083       .  S
C1914      H1922   1.084       .  S
C1923      C1924   1.408       .  A
C1923      C1928   1.408       .  A
C1924      C1925   1.397       .  A
C1924      H1937   1.083       .  S
C1925      C1926   1.398       .  A
C1925      H1938   1.084       .  S
C1926      C1927   1.399       .  A
C1926      C1929   1.436   1_556  S
C1927      C1928   1.398       .  A
C1927      H1939   1.084       .  S
C1928      H1940   1.083       .  S
C1930      C1931   1.436       .  S
C1931      C1932   1.399       .  A
C1931      C1936   1.399       .  A
C1932      C1933   1.397       .  A
C1932      H1941   1.084       .  S
C1933      C1934   1.407       .  A
C1933      H1942   1.083       .  S
C1934      C1935   1.407       .  A
C1935      C1936   1.397       .  A
C1935      H1943   1.083       .  S
C1936      H1944   1.084       .  S
C1945      C1946   1.407       .  A
C1945      C1950   1.408       .  A
C1946      C1947   1.397       .  A
C1946      H1959   1.083       .  S
C1947      C1948   1.399       .  A
C1947      H1960   1.084       .  S
C1948      C1949   1.399       .  A
C1948      C1951   1.437   1_556  S
C1949      C1950   1.398       .  A
C1949      H1961   1.084       .  S
C1950      H1962   1.083       .  S
C1951      C1952   1.205       .  T
C1952      C1953   1.437       .  S
C1953      C1954   1.398       .  A
C1953      C1958   1.399       .  A
C1954      C1955   1.397       .  A
C1954      H1963   1.084       .  S
C1955      C1956   1.408       .  A
C1955      H1964   1.083       .  S
C1956      C1957   1.407       .  A
C1957      C1958   1.398       .  A
C1957      H1965   1.083       .  S
C1958      H1966   1.084       .  S
C1967      C1968   1.408       .  A
C1967      C1972   1.408       .  A
C1968      C1969   1.401       .  A
C1968      H1981   1.083       .  S
C1969      C1970   1.401       .  A
C1969      H1982   1.083       .  S
C1970      C1971   1.398       .  A
C1970      C1973   1.441       .  S
C1971      C1972   1.397       .  A
C1971      H1983   1.084       .  S
C1972      H1984   1.083       .  S
C1973      C1974   1.207       .  T
C1974      C1975   1.441       .  S
C1975      C1976   1.401       .  A
C1975      C1980   1.400       .  A
C1976      C1977   1.399       .  A
C1976      H1985   1.083       .  S
C1977      C1978   1.402       .  A
C1978      C1979   1.406       .  A
C1979      C1980   1.399       .  A
C1979      H1987   1.083       .  S
C1980      H1988   1.083       .  S
C1989      C1990   1.402       .  A
C1989      C1994   1.407       .  A
C1990      C1991   1.399       .  A
C1990      H2003   1.079       .  S
C1991      C1992   1.401       .  A
C1991      H2004   1.083       .  S
C1992      C1993   1.399       .  A
C1992      C1995   1.440       .  S
C1993      C1994   1.398       .  A
C1993      H2005   1.083       .  S
C1994      H2006   1.083       .  S
C1995      C1996   1.206       .  T
C1996      C1997   1.440       .  S
C1997      C1998   1.401       .  A
C1997      C2002   1.398       .  A
C1998      C1999   1.402       .  A
C1998      H2007   1.083       .  S
C1999      C2000   1.408       .  A
C1999      H2008   1.083       .  S
C2000      C2001   1.408       .  A
C2001      C2002   1.396       .  A
C2001      H2009   1.083       .  S
C2002      H2010   1.084       .  S
C2011      C2012   1.403       .  A
C2011      C2016   1.405       .  A
C2012      C2013   1.400       .  A
C2012      H2025   1.083       .  S
C2013      C2014   1.402       .  A
C2013      H2026   1.083       .  S
C2014      C2015   1.399       .  A
C2014      C2017   1.440       .  S
C2015      C2016   1.397       .  A
C2015      H2027   1.083       .  S
C2017      C2018   1.206       .  T
C2018      C2019   1.440       .  S
C2019      C2020   1.398       .  A
C2019      C2024   1.401       .  A
C2020      C2021   1.397       .  A
C2020      H2029   1.084       .  S
C2021      C2022   1.409       .  A
C2021      H2030   1.083       .  S
C2022      C2023   1.407       .  A
C2023      C2024   1.401       .  A
C2023      H2031   1.083       .  S
C2024      H2032   1.083       .  S
