geometry optimzed in LAMMPS
_audit_creation_date              2020-12-01 
_audit_creation_method            'lammps2cif' 
_symmetry_space_group_name_H-M    'P1' 
_symmetry_Int_Tables_number       1 
_symmetry_cell_setting            triclinic 
loop_ 
_symmetry_equiv_pos_as_xyz 
  x,y,z 
_cell_length_a                    32.33852769 
_cell_length_b                    32.338132025867964 
_cell_length_c                    45.79580627107504 
_cell_angle_alpha                 89.99961707315254 
_cell_angle_beta                  89.9999134479257 
_cell_angle_gamma                 90.00109149981029 
loop_ 
_atom_site_label 
_atom_site_type_symbol 
_atom_site_fract_x 
_atom_site_fract_y 
_atom_site_fract_z 
_atom_site_charge 
O1          O  0.54388926  0.78927130  0.03102908    -0.69700
O2          O  0.45609812  0.78927026  0.46897745    -0.70700
O3          O  0.54387870  0.78926938  0.46897008    -0.59300
O4          O  0.45610897  0.78927127  0.03103628    -0.67700
O5          O  0.45613797  0.85801573  0.03101592    -0.67200
O6          O  0.54385289  0.85801380  0.46898832    -0.58500
O7          O  0.45612776  0.85801470  0.46899614    -0.71000
O8          O  0.54386284  0.85801577  0.03100824    -0.69800
Cu9        Cu  0.49999373  0.78682464  0.50000324     1.04600
Cu10       Cu  0.49999550  0.86042403  0.00000213     1.04300
C11         C  0.55754275  0.82365965  0.04074223     0.96500
C12         C  0.44244598  0.82365829  0.45926339     0.95700
C13         C  0.55752965  0.82365694  0.45925354     0.87800
C14         C  0.44245986  0.82365939  0.04075190     0.94100
C15         C  0.64616401  0.82376341  0.39599797     0.83500
N16         N  0.67583438  0.79409494  0.39598905    -0.74800
C17         C  0.70543814  0.79402940  0.37499373     0.85900
N18         N  0.70537626  0.82363358  0.35399846    -0.74800
C19         C  0.67571169  0.85330764  0.35398917     0.86000
N20         N  0.64609717  0.85337837  0.37499353    -0.76500
C21         C  0.35380119  0.82377907  0.39601570     0.83500
N22         N  0.35387444  0.85339477  0.37501186    -0.74800
C23         C  0.32426060  0.85332952  0.35400712     0.85900
N24         N  0.29459061  0.82365955  0.35401517    -0.74800
C25         C  0.29452247  0.79405461  0.37500995     0.86000
N26         N  0.32412555  0.79411485  0.39600562    -0.76500
C27         C  0.67572888  0.85333149  0.14599912     0.83500
N28         N  0.70539868  0.82366241  0.14599021    -0.74800
C29         C  0.70546595  0.79405830  0.12499504     0.85900
N30         N  0.67586218  0.79411857  0.10399989    -0.74800
C31         C  0.64618677  0.82378182  0.10399058     0.86000
N32         N  0.64611439  0.85339673  0.12499477    -0.76500
C33         C  0.35382725  0.82376621  0.10400851     0.85900
N34         N  0.32415659  0.79409693  0.10401754    -0.74800
C35         C  0.29455312  0.79403009  0.12501300     0.85900
N36         N  0.29461541  0.82363392  0.14600825    -0.74800
C37         C  0.32428026  0.85330887  0.14601742     0.86000
N38         N  0.35389465  0.85338075  0.12501296    -0.76500
O39         O  0.64147583  0.95563524  0.28100838    -0.69700
O40         O  0.64147591  0.04337152  0.21899587    -0.70700
O41         O  0.64147714  0.95564530  0.21898852    -0.59300
O42         O  0.64147578  0.04336156  0.28101583    -0.67700
O43         O  0.71021936  0.04339055  0.28103534    -0.67200
O44         O  0.71022074  0.95561958  0.21896947    -0.58500
O45         O  0.71021953  0.04340126  0.21897625    -0.71000
O46         O  0.71021945  0.95560879  0.28102837    -0.69800
Cu47       Cu  0.63906720  0.99950337  0.25000214     1.04600
Cu48       Cu  0.71266580  0.99950519  0.25000236     1.04300
C49         C  0.67583162  0.94195488  0.29074185     0.96500
C50         C  0.67583173  0.05705347  0.20926253     0.95700
C51         C  0.67583350  0.94196832  0.20925344     0.87800
C52         C  0.67583183  0.05704003  0.29075127     0.94100
O53         O  0.28977034  0.95561676  0.28103686    -0.69700
O54         O  0.28977069  0.04338833  0.21897133    -0.70700
O55         O  0.28977209  0.95560687  0.21897814    -0.59300
O56         O  0.28977007  0.04339843  0.28103009    -0.67700
O57         O  0.35851365  0.04337218  0.28101085    -0.67200
O58         O  0.35851568  0.95563677  0.21899853    -0.58500
O59         O  0.35851427  0.04336287  0.21899092    -0.71000
O60         O  0.35851394  0.95564600  0.28101826    -0.69800
Cu61       Cu  0.28732486  0.99950251  0.25000411     1.04600
Cu62       Cu  0.36092326  0.99950458  0.25000471     1.04300
C63         C  0.32415762  0.94196717  0.29075309     0.96500
C64         C  0.32415806  0.05703965  0.20925546     0.95700
C65         C  0.32416017  0.94195486  0.20926484     0.87800
C66         C  0.32415757  0.05705235  0.29074392     0.94100
O67         O  0.45609917  0.20973877  0.03102929    -0.69700
O68         O  0.54388991  0.20973777  0.46897660    -0.70700
O69         O  0.45610937  0.20973871  0.46897033    -0.59300
O70         O  0.54388004  0.20973926  0.03103577    -0.67700
O71         O  0.54385139  0.14099487  0.03101715    -0.67200
O72         O  0.45613530  0.14099430  0.46899018    -0.58500
O73         O  0.54386028  0.14099335  0.46899720    -0.71000
O74         O  0.45612614  0.14099435  0.03101014    -0.69800
Cu75       Cu  0.49999464  0.21218466  0.00000302     1.04600
Cu76       Cu  0.49999322  0.13858537  0.00000371     1.04300
C77         C  0.44244575  0.17535061  0.04074324     0.96500
C78         C  0.55754169  0.17534936  0.45926317     0.95700
C79         C  0.44245844  0.17535087  0.45925463     0.87800
C80         C  0.55752973  0.17535158  0.04075204     0.94100
C81         C  0.35382458  0.17524393  0.39599886     0.83500
N82         N  0.32415474  0.20491294  0.39598942    -0.74800
C83         C  0.29455123  0.20497887  0.37499400     0.85900
N84         N  0.29461282  0.17537449  0.35399912    -0.74800
C85         C  0.32427685  0.14569982  0.35399037     0.86000
N86         N  0.35389113  0.14562877  0.37499485    -0.76500
C87         C  0.64618527  0.17522657  0.39601414     0.83500
N88         N  0.67586097  0.20489068  0.39600429    -0.74800
C89         C  0.70546469  0.20495126  0.37500905     0.85900
N90         N  0.70539701  0.17534669  0.35401421    -0.74800
C91         C  0.67572696  0.14567670  0.35400581     0.86000
N92         N  0.64611255  0.14561110  0.37501032    -0.76500
C93         C  0.64616481  0.17524582  0.10400718     0.83500
N94         N  0.67583519  0.20491548  0.10401657    -0.74800
C95         C  0.70543890  0.20498150  0.12501190     0.85900
N96         N  0.70537690  0.17537661  0.14600670    -0.74800
C97         C  0.67571230  0.14570143  0.14601556     0.86000
N98         N  0.64609785  0.14563027  0.12501121    -0.76500
C99         C  0.35380191  0.17522782  0.10399196     0.83500
N100        N  0.35387497  0.14561189  0.12499570    -0.74800
C101        C  0.32426175  0.14567676  0.14600097     0.85900
N102        N  0.29459268  0.17534649  0.14599360    -0.74800
C103        C  0.29452479  0.20495165  0.12499894     0.86000
N104        N  0.32412721  0.20489180  0.10400279    -0.76500
O105        O  0.95610373  0.70973750  0.28102956    -0.69700
O106        O  0.04388809  0.70973496  0.21897309    -0.70700
O107        O  0.95610753  0.70973807  0.21897068    -0.59300
O108        O  0.04388423  0.70973409  0.28103204    -0.67700
O109        O  0.04385265  0.64098962  0.28101250    -0.67200
O110        O  0.95613164  0.64099360  0.21899018    -0.58500
O111        O  0.04385659  0.64099051  0.21899263    -0.71000
O112        O  0.95612752  0.64099305  0.28100993    -0.69800
Cu113      Cu  0.99999606  0.71218212  0.25000132     1.04600
Cu114      Cu  0.99999195  0.63858262  0.25000130     1.04300
C115        C  0.94244965  0.67534990  0.29074394     0.96500
C116        C  0.05753831  0.67534655  0.20925869     0.95700
C117        C  0.94245488  0.67535058  0.20925548     0.87800
C118        C  0.05753310  0.67534545  0.29074727     0.94100
O119        O  0.95613546  0.35802226  0.28101510    -0.69700
O120        O  0.04385888  0.35802218  0.21899415    -0.70700
O121        O  0.95613343  0.35802235  0.21899524    -0.59300
O122        O  0.04386067  0.35802159  0.28101403    -0.67700
O123        O  0.04388666  0.28927719  0.28103374    -0.67200
O124        O  0.95610437  0.28927797  0.21897591    -0.58500
O125        O  0.04388516  0.28927775  0.21897490    -0.71000
O126        O  0.95610610  0.28927782  0.28103467    -0.69800
Cu127      Cu  0.99999714  0.36043113  0.25000459     1.04600
Cu128      Cu  0.99999548  0.28683184  0.25000479     1.04300
C129        C  0.94245566  0.32366581  0.29074960     0.96500
C130        C  0.05753729  0.32366575  0.20925989     0.95700
C131        C  0.94245306  0.32366596  0.20926127     0.87800
C132        C  0.05753948  0.32366504  0.29074820     0.94100
O133        O  0.21022613  0.54339447  0.03103355    -0.69700
O134        O  0.21022756  0.45561490  0.46897392    -0.70700
O135        O  0.21022456  0.54339626  0.46897442    -0.59300
O136        O  0.21022913  0.45561306  0.03103293    -0.67700
O137        O  0.14148555  0.45563735  0.03101423    -0.67200
O138        O  0.14148095  0.54336505  0.46899505    -0.58500
O139        O  0.14148393  0.45563914  0.46899436    -0.71000
O140        O  0.14148253  0.54336315  0.03101492    -0.69800
Cu141      Cu  0.21267276  0.49950478  0.00000371     1.04600
Cu142      Cu  0.13907435  0.49950103  0.00000464     1.04300
C143        C  0.17583831  0.55704392  0.04074899     0.96500
C144        C  0.17584013  0.44196203  0.45925932     0.95700
C145        C  0.17583624  0.55704628  0.45926015     0.87800
C146        C  0.17584218  0.44195950  0.04074812     0.94100
C147        C  0.17571697  0.64568852  0.39600910     0.83500
N148        N  0.20538064  0.67536472  0.39600097    -0.74800
C149        C  0.20544234  0.70496988  0.37500637     0.85900
N150        N  0.17583930  0.70490338  0.35401071    -0.74800
C151        C  0.14616987  0.67523295  0.35400062     0.86000
N152        N  0.14610299  0.64561701  0.37500439    -0.76500
C153        C  0.17572981  0.35332612  0.39600502     0.83500
N154        N  0.20540016  0.32365779  0.39599339    -0.74800
C155        C  0.20546623  0.29405568  0.37499695     0.85900
N156        N  0.17586059  0.29411725  0.35400300    -0.74800
C157        C  0.14618446  0.32377998  0.35399639     0.86000
N158        N  0.14611345  0.35339286  0.37500198    -0.76500
C159        C  0.17572601  0.35331808  0.10399977     0.83500
N160        N  0.20538840  0.32364171  0.10400829    -0.74800
C161        C  0.20544866  0.29403705  0.12500329     0.85900
N162        N  0.17584540  0.29410418  0.14599888    -0.74800
C163        C  0.14617728  0.32377481  0.14600853     0.86000
N164        N  0.14611190  0.35339021  0.12500441    -0.76500
C165        C  0.17572786  0.64568123  0.10400234     0.83500
N166        N  0.14611137  0.64561485  0.12500533    -0.74800
C167        C  0.14618312  0.67522846  0.14601045     0.85900
N168        N  0.17586009  0.70489139  0.14600342    -0.74800
C169        C  0.20546584  0.70495258  0.12500954     0.86000
N170        N  0.20539910  0.67534981  0.10401355    -0.76500
O171        O  0.78976820  0.54339469  0.46897179    -0.69700
O172        O  0.78976924  0.45561715  0.03103363    -0.70700
O173        O  0.78976878  0.54339863  0.03103055    -0.59300
O174        O  0.78976806  0.45561306  0.46897485    -0.67700
O175        O  0.85851162  0.45564201  0.46899367    -0.67200
O176        O  0.85851238  0.54337238  0.03101078    -0.58500
O177        O  0.85851286  0.45564630  0.03101364    -0.71000
O178        O  0.85851180  0.54336832  0.46899081    -0.69800
Cu179      Cu  0.78732259  0.49950589  0.00000265     1.04600
Cu180      Cu  0.86092108  0.49950734  0.50000215     1.04300
C181        C  0.82415568  0.55704645  0.45925631     0.96500
C182        C  0.82415702  0.44196692  0.04074874     0.95700
C183        C  0.82415636  0.55705172  0.04074476     0.87800
C184        C  0.82415541  0.44196133  0.45926015     0.94100
C185        C  0.82426981  0.35331759  0.39601063     0.83500
N186        N  0.85388365  0.35338992  0.37500577    -0.74800
C187        C  0.85381698  0.32377465  0.35400184     0.85900
N188        N  0.82414776  0.29410404  0.35401179    -0.74800
C189        C  0.79454462  0.29403668  0.37500747     0.86000
N190        N  0.79460617  0.32364123  0.39600234    -0.76500
C191        C  0.82426407  0.64568440  0.39600262     0.83500
N192        N  0.85387949  0.64561926  0.37499890    -0.74800
C193        C  0.85380679  0.67523302  0.35399362     0.85900
N194        N  0.82412992  0.70489497  0.35400127    -0.74800
C195        C  0.79452526  0.70495496  0.37499593     0.86000
N196        N  0.79459293  0.67535195  0.39599203    -0.76500
C197        C  0.82427155  0.64569654  0.10399345     0.83500
N198        N  0.85388532  0.64562587  0.12499828    -0.74800
C199        C  0.85381835  0.67524140  0.14600200     0.85900
N200        N  0.82414889  0.70491066  0.14599187    -0.74800
C201        C  0.79454594  0.70497647  0.12499614     0.86000
N202        N  0.79460775  0.67537161  0.10400149    -0.76500
C203        C  0.82426607  0.35333017  0.10400344     0.83500
N204        N  0.85388185  0.35339611  0.12500685    -0.74800
C205        C  0.85380915  0.32378250  0.14601223     0.85900
N206        N  0.82413185  0.29411971  0.14600496    -0.74800
C207        C  0.79452681  0.29405891  0.12501055     0.86000
N208        N  0.79459457  0.32366182  0.10401441    -0.76500
C209        C  0.82430467  0.61442302  0.41824440    -0.10000
C210        C  0.82421516  0.58824126  0.43698303    -0.11600
C211        C  0.82430527  0.38458026  0.41825147    -0.10000
C212        C  0.82421458  0.41076385  0.43698875    -0.11600
C213        C  0.82430697  0.61443329  0.08175305    -0.10000
C214        C  0.82421598  0.58824941  0.06301599    -0.11600
C215        C  0.82430686  0.38459119  0.08176136    -0.10000
C216        C  0.82421712  0.41077256  0.06302240    -0.11600
C217        C  0.17577474  0.58824246  0.43698768    -0.10000
C218        C  0.17568203  0.61442536  0.41824976    -0.11600
C219        C  0.17569068  0.38458639  0.41824727    -0.10000
C220        C  0.17578074  0.41076752  0.43698612    -0.11600
C221        C  0.17577810  0.58823878  0.06302195    -0.10000
C222        C  0.17568805  0.61442027  0.08176054    -0.11600
C223        C  0.17569198  0.38458049  0.08175857    -0.10000
C224        C  0.17578365  0.41076321  0.06302052    -0.11600
C225        C  0.11492060  0.32381534  0.33175655    -0.10000
C226        C  0.08873657  0.32372445  0.31301972    -0.11600
C227        C  0.88507857  0.32381495  0.33176052    -0.10000
C228        C  0.91126056  0.32372544  0.31302234    -0.11600
C229        C  0.08873282  0.32372539  0.18698743    -0.10000
C230        C  0.11491532  0.32381489  0.16824957    -0.11600
C231        C  0.91125617  0.32372573  0.18698958    -0.10000
C232        C  0.88507251  0.32381709  0.16825246    -0.11600
C233        C  0.11490855  0.67519355  0.33175920    -0.10000
C234        C  0.08872721  0.67528432  0.31302064    -0.11600
C235        C  0.11491924  0.67519376  0.16825025    -0.10000
C236        C  0.08873544  0.67528583  0.18698723    -0.11600
C237        C  0.91125275  0.67529096  0.31301558    -0.10000
C238        C  0.88506953  0.67519932  0.33175300    -0.11600
C239        C  0.88507939  0.67520228  0.16824360    -0.10000
C240        C  0.91126072  0.67529196  0.18698217    -0.11600
C241        C  0.23680956  0.26266801  0.12500271    -0.10000
C242        C  0.26315878  0.23631556  0.12500144    -0.11600
C243        C  0.73680388  0.23634778  0.12501147    -0.10000
C244        C  0.76315723  0.26269719  0.12501151    -0.11600
C245        C  0.73683191  0.23631531  0.37500788    -0.10000
C246        C  0.76318214  0.26266786  0.37500774    -0.11600
C247        C  0.26318697  0.23634466  0.37499452    -0.10000
C248        C  0.23683462  0.26269405  0.37499508    -0.11600
C249        C  0.58873951  0.17528816  0.43699223    -0.10000
C250        C  0.61492279  0.17519387  0.41825491    -0.11600
C251        C  0.38508537  0.17520345  0.41824079    -0.10000
C252        C  0.41126592  0.17529183  0.43698000    -0.11600
C253        C  0.58872267  0.17529295  0.06302647    -0.10000
C254        C  0.61490366  0.17520510  0.08176544    -0.11600
C255        C  0.41124712  0.17528998  0.06301358    -0.10000
C256        C  0.38506353  0.17519598  0.08175067    -0.11600
C257        C  0.32421758  0.08825155  0.31301394    -0.10000
C258        C  0.32431059  0.11443622  0.33175036    -0.11600
C259        C  0.32421682  0.08823280  0.18698093    -0.10000
C260        C  0.32430421  0.11441433  0.16824209    -0.11600
C261        C  0.67568491  0.11441455  0.33176457    -0.10000
C262        C  0.67577263  0.08823311  0.31302577    -0.11600
C263        C  0.67577118  0.08825278  0.18699228    -0.10000
C264        C  0.67567815  0.11443749  0.16825565    -0.11600
C265        C  0.26318817  0.76266398  0.12501209    -0.10000
C266        C  0.23683516  0.73631432  0.12501121    -0.11600
C267        C  0.32431457  0.88457185  0.16825784    -0.10000
C268        C  0.32422135  0.91075596  0.18699463    -0.11600
C269        C  0.73683304  0.76269536  0.12499564    -0.10000
C270        C  0.76318337  0.73634394  0.12499559    -0.11600
C271        C  0.67568732  0.88459338  0.16824051    -0.10000
C272        C  0.67577492  0.91077496  0.18697918    -0.11600
C273        C  0.26315540  0.76269056  0.37500813    -0.10000
C274        C  0.23680491  0.73633840  0.37500709    -0.11600
C275        C  0.32421617  0.91077372  0.31302737    -0.10000
C276        C  0.32430327  0.88459196  0.33176605    -0.11600
C277        C  0.73680292  0.76266426  0.37499464    -0.10000
C278        C  0.76315599  0.73631564  0.37499502    -0.11600
C279        C  0.67577095  0.91075554  0.31301204    -0.10000
C280        C  0.67567770  0.88457096  0.33174871    -0.11600
C281        C  0.58872223  0.82371541  0.43697892    -0.10000
C282        C  0.61490300  0.82380367  0.41823980    -0.11600
C283        C  0.41124718  0.82371848  0.43699331    -0.10000
C284        C  0.38506333  0.82381174  0.41825650    -0.11600
C285        C  0.41126799  0.82371900  0.06302696    -0.10000
C286        C  0.38508791  0.82380747  0.08176652    -0.11600
C287        C  0.58874089  0.82372057  0.06301280    -0.10000
C288        C  0.61492430  0.82381443  0.08174994    -0.11600
O289        O  0.54388933  0.78927124  0.53102912    -0.69700
O290        O  0.45609829  0.78927022  0.96897740    -0.70700
O291        O  0.54387884  0.78926944  0.96897019    -0.59300
O292        O  0.45610905  0.78927122  0.53103633    -0.67700
O293        O  0.45613802  0.85801565  0.53101597    -0.67200
O294        O  0.54385293  0.85801389  0.96898835    -0.58500
O295        O  0.45612793  0.85801468  0.96899610    -0.71000
O296        O  0.54386277  0.85801568  0.53100819    -0.69800
Cu297      Cu  0.49999381  0.78682453  0.00000326     1.04600
Cu298      Cu  0.49999542  0.86042395  0.50000209     1.04300
C299        C  0.55754272  0.82365964  0.54074227     0.96500
C300        C  0.44244617  0.82365825  0.95926333     0.95700
C301        C  0.55752967  0.82365701  0.95925356     0.87800
C302        C  0.44245986  0.82365931  0.54075192     0.94100
C303        C  0.64616405  0.82376349  0.89599797     0.83500
N304        N  0.67583447  0.79409505  0.89598912    -0.74800
C305        C  0.70543810  0.79402942  0.87499372     0.85900
N306        N  0.70537617  0.82363351  0.85399841    -0.74800
C307        C  0.67571164  0.85330764  0.85398913     0.86000
N308        N  0.64609711  0.85337833  0.87499349    -0.76500
C309        C  0.35380116  0.82377905  0.89601575     0.83500
N310        N  0.35387450  0.85339478  0.87501188    -0.74800
C311        C  0.32426072  0.85332942  0.85400710     0.85900
N312        N  0.29459067  0.82365960  0.85401517    -0.74800
C313        C  0.29452245  0.79405464  0.87500996     0.86000
N314        N  0.32412558  0.79411482  0.89600558    -0.76500
C315        C  0.67572897  0.85333150  0.64599907     0.83500
N316        N  0.70539886  0.82366252  0.64599009    -0.74800
C317        C  0.70546606  0.79405837  0.62499496     0.85900
N318        N  0.67586217  0.79411854  0.60399989    -0.74800
C319        C  0.64618673  0.82378178  0.60399060     0.86000
N320        N  0.64611438  0.85339668  0.62499479    -0.76500
C321        C  0.35382723  0.82376624  0.60400846     0.85900
N322        N  0.32415662  0.79409690  0.60401755    -0.74800
C323        C  0.29455310  0.79403012  0.62501296     0.85900
N324        N  0.29461539  0.82363393  0.64600822    -0.74800
C325        C  0.32428029  0.85330886  0.64601739     0.86000
N326        N  0.35389458  0.85338085  0.62501287    -0.76500
O327        O  0.64147593  0.95563517  0.78100832    -0.69700
O328        O  0.64147605  0.04337140  0.71899583    -0.70700
O329        O  0.64147711  0.95564520  0.71898842    -0.59300
O330        O  0.64147597  0.04336151  0.78101578    -0.67700
O331        O  0.71021951  0.04339066  0.78103524    -0.67200
O332        O  0.71022067  0.95561947  0.71896953    -0.58500
O333        O  0.71021964  0.04340139  0.71897632    -0.71000
O334        O  0.71021952  0.95560881  0.78102842    -0.69800
Cu335      Cu  0.63906734  0.99950329  0.75000208     1.04600
Cu336      Cu  0.71266574  0.99950516  0.75000235     1.04300
C337        C  0.67583171  0.94195485  0.79074186     0.96500
C338        C  0.67583183  0.05705351  0.70926257     0.95700
C339        C  0.67583349  0.94196822  0.70925342     0.87800
C340        C  0.67583198  0.05704008  0.79075118     0.94100
O341        O  0.28977027  0.95561672  0.78103693    -0.69700
O342        O  0.28977067  0.04338837  0.71897132    -0.70700
O343        O  0.28977201  0.95560678  0.71897810    -0.59300
O344        O  0.28977019  0.04339830  0.78103017    -0.67700
O345        O  0.35851378  0.04337221  0.78101090    -0.67200
O346        O  0.35851560  0.95563672  0.71899852    -0.58500
O347        O  0.35851427  0.04336293  0.71899105    -0.71000
O348        O  0.35851387  0.95564598  0.78101832    -0.69800
Cu349      Cu  0.28732495  0.99950245  0.75000409     1.04600
Cu350      Cu  0.36092337  0.99950454  0.75000472     1.04300
C351        C  0.32415756  0.94196722  0.79075321     0.96500
C352        C  0.32415808  0.05703972  0.70925554     0.95700
C353        C  0.32416010  0.94195479  0.70926482     0.87800
C354        C  0.32415768  0.05705228  0.79074399     0.94100
O355        O  0.45609941  0.20973871  0.53102932    -0.69700
O356        O  0.54388982  0.20973794  0.96897655    -0.70700
O357        O  0.45610923  0.20973864  0.96897039    -0.59300
O358        O  0.54388022  0.20973931  0.53103571    -0.67700
O359        O  0.54385125  0.14099492  0.53101726    -0.67200
O360        O  0.45613528  0.14099423  0.96899018    -0.58500
O361        O  0.54386020  0.14099353  0.96899715    -0.71000
O362        O  0.45612600  0.14099428  0.53101005    -0.69800
Cu363      Cu  0.49999479  0.21218459  0.50000299     1.04600
Cu364      Cu  0.49999315  0.13858529  0.50000369     1.04300
C365        C  0.44244584  0.17535058  0.54074322     0.96500
C366        C  0.55754161  0.17534952  0.95926311     0.95700
C367        C  0.44245841  0.17535080  0.95925462     0.87800
C368        C  0.55752976  0.17535162  0.54075205     0.94100
C369        C  0.35382462  0.17524403  0.89599878     0.83500
N370        N  0.32415478  0.20491304  0.89598936    -0.74800
C371        C  0.29455121  0.20497891  0.87499397     0.85900
N372        N  0.29461266  0.17537438  0.85399919    -0.74800
C373        C  0.32427669  0.14569973  0.85399043     0.86000
N374        N  0.35389111  0.14562883  0.87499481    -0.76500
C375        C  0.64618517  0.17522674  0.89601406     0.83500
N376        N  0.67586092  0.20489077  0.89600422    -0.74800
C377        C  0.70546460  0.20495134  0.87500896     0.85900
N378        N  0.70539691  0.17534673  0.85401414    -0.74800
C379        C  0.67572680  0.14567680  0.85400573     0.86000
N380        N  0.64611238  0.14561126  0.87501022    -0.76500
C381        C  0.64616473  0.17524591  0.60400724     0.83500
N382        N  0.67583525  0.20491545  0.60401655    -0.74800
C383        C  0.70543893  0.20498144  0.62501189     0.85900
N384        N  0.70537685  0.17537660  0.64600671    -0.74800
C385        C  0.67571222  0.14570142  0.64601560     0.86000
N386        N  0.64609777  0.14563031  0.62501124    -0.76500
C387        C  0.35380197  0.17522778  0.60399192     0.83500
N388        N  0.35387494  0.14561179  0.62499561    -0.74800
C389        C  0.32426178  0.14567668  0.64600093     0.85900
N390        N  0.29459274  0.17534646  0.64599356    -0.74800
C391        C  0.29452487  0.20495165  0.62499895     0.86000
N392        N  0.32412735  0.20489187  0.60400280    -0.76500
O393        O  0.95610363  0.70973756  0.78102959    -0.69700
O394        O  0.04388806  0.70973490  0.71897313    -0.70700
O395        O  0.95610745  0.70973799  0.71897067    -0.59300
O396        O  0.04388428  0.70973402  0.78103204    -0.67700
O397        O  0.04385263  0.64098959  0.78101247    -0.67200
O398        O  0.95613163  0.64099354  0.71899013    -0.58500
O399        O  0.04385652  0.64099048  0.71899254    -0.71000
O400        O  0.95612759  0.64099315  0.78100999    -0.69800
Cu401      Cu  0.99999598  0.71218205  0.75000138     1.04600
Cu402      Cu  0.99999200  0.63858275  0.75000126     1.04300
C403        C  0.94244964  0.67534995  0.79074399     0.96500
C404        C  0.05753823  0.67534653  0.70925863     0.95700
C405        C  0.94245485  0.67535051  0.70925541     0.87800
C406        C  0.05753313  0.67534537  0.79074728     0.94100
O407        O  0.95613555  0.35802221  0.78101517    -0.69700
O408        O  0.04385902  0.35802237  0.71899418    -0.70700
O409        O  0.95613357  0.35802233  0.71899520    -0.59300
O410        O  0.04386083  0.35802165  0.78101402    -0.67700
O411        O  0.04388683  0.28927726  0.78103365    -0.67200
O412        O  0.95610436  0.28927794  0.71897589    -0.58500
O413        O  0.04388514  0.28927793  0.71897480    -0.71000
O414        O  0.95610615  0.28927779  0.78103475    -0.69800
Cu415      Cu  0.99999729  0.36043108  0.75000465     1.04600
Cu416      Cu  0.99999556  0.28683180  0.75000475     1.04300
C417        C  0.94245572  0.32366579  0.79074970     0.96500
C418        C  0.05753735  0.32366594  0.70925986     0.95700
C419        C  0.94245312  0.32366596  0.70926123     0.87800
C420        C  0.05753966  0.32366508  0.79074813     0.94100
O421        O  0.21022602  0.54339466  0.53103353    -0.69700
O422        O  0.21022741  0.45561480  0.96897393    -0.70700
O423        O  0.21022458  0.54339636  0.96897454    -0.59300
O424        O  0.21022920  0.45561305  0.53103292    -0.67700
O425        O  0.14148559  0.45563731  0.53101424    -0.67200
O426        O  0.14148102  0.54336504  0.96899507    -0.58500
O427        O  0.14148381  0.45563912  0.96899433    -0.71000
O428        O  0.14148239  0.54336324  0.53101495    -0.69800
Cu429      Cu  0.21267287  0.49950490  0.50000366     1.04600
Cu430      Cu  0.13907426  0.49950100  0.50000471     1.04300
C431        C  0.17583818  0.55704400  0.54074903     0.96500
C432        C  0.17583999  0.44196191  0.95925935     0.95700
C433        C  0.17583627  0.55704634  0.95926023     0.87800
C434        C  0.17584224  0.44195950  0.54074813     0.94100
C435        C  0.17571713  0.64568853  0.89600912     0.83500
N436        N  0.20538074  0.67536477  0.89600099    -0.74800
C437        C  0.20544240  0.70496993  0.87500636     0.85900
N438        N  0.17583935  0.70490338  0.85401073    -0.74800
C439        C  0.14616997  0.67523291  0.85400063     0.86000
N440        N  0.14610318  0.64561693  0.87500440    -0.76500
C441        C  0.17572977  0.35332617  0.89600495     0.83500
N442        N  0.20540007  0.32365780  0.89599342    -0.74800
C443        C  0.20546620  0.29405567  0.87499698     0.85900
N444        N  0.17586062  0.29411725  0.85400299    -0.74800
C445        C  0.14618443  0.32377993  0.85399639     0.86000
N446        N  0.14611345  0.35339290  0.87500194    -0.76500
C447        C  0.17572609  0.35331804  0.60399975     0.83500
N448        N  0.20538836  0.32364157  0.60400825    -0.74800
C449        C  0.20544859  0.29403695  0.62500329     0.85900
N450        N  0.17584528  0.29410412  0.64599884    -0.74800
C451        C  0.14617726  0.32377485  0.64600851     0.86000
N452        N  0.14611202  0.35339030  0.62500443    -0.76500
C453        C  0.17572773  0.64568131  0.60400234     0.83500
N454        N  0.14611120  0.64561500  0.62500530    -0.74800
C455        C  0.14618309  0.67522853  0.64601045     0.85900
N456        N  0.17586016  0.70489135  0.64600346    -0.74800
C457        C  0.20546586  0.70495253  0.62500955     0.86000
N458        N  0.20539903  0.67534980  0.60401354    -0.76500
O459        O  0.78976832  0.54339481  0.96897173    -0.69700
O460        O  0.78976919  0.45561712  0.53103373    -0.70700
O461        O  0.78976874  0.54339873  0.53103064    -0.59300
O462        O  0.78976800  0.45561301  0.96897475    -0.67700
O463        O  0.85851158  0.45564208  0.96899364    -0.67200
O464        O  0.85851230  0.54337242  0.53101070    -0.58500
O465        O  0.85851279  0.45564627  0.53101359    -0.71000
O466        O  0.85851196  0.54336836  0.96899083    -0.69800
Cu467      Cu  0.78732268  0.49950585  0.50000277     1.04600
Cu468      Cu  0.86092120  0.49950728  0.00000219     1.04300
C469        C  0.82415585  0.55704653  0.95925630     0.96500
C470        C  0.82415697  0.44196686  0.54074874     0.95700
C471        C  0.82415635  0.55705181  0.54074474     0.87800
C472        C  0.82415539  0.44196133  0.95926010     0.94100
C473        C  0.82426983  0.35331753  0.89601063     0.83500
N474        N  0.85388372  0.35338975  0.87500583    -0.74800
C475        C  0.85381695  0.32377459  0.85400185     0.85900
N476        N  0.82414762  0.29410406  0.85401174    -0.74800
C477        C  0.79454449  0.29403674  0.87500738     0.86000
N478        N  0.79460608  0.32364126  0.89600229    -0.76500
C479        C  0.82426406  0.64568440  0.89600254     0.83500
N480        N  0.85387949  0.64561933  0.87499884    -0.74800
C481        C  0.85380677  0.67523312  0.85399359     0.85900
N482        N  0.82412979  0.70489497  0.85400118    -0.74800
C483        C  0.79452514  0.70495489  0.87499586     0.86000
N484        N  0.79459290  0.67535192  0.89599198    -0.76500
C485        C  0.82427153  0.64569659  0.60399339     0.83500
N486        N  0.85388526  0.64562583  0.62499825    -0.74800
C487        C  0.85381839  0.67524143  0.64600192     0.85900
N488        N  0.82414901  0.70491076  0.64599177    -0.74800
C489        C  0.79454599  0.70497651  0.62499609     0.86000
N490        N  0.79460776  0.67537169  0.60400144    -0.76500
C491        C  0.82426611  0.35333012  0.60400338     0.83500
N492        N  0.85388185  0.35339621  0.62500684    -0.74800
C493        C  0.85380919  0.32378250  0.64601218     0.85900
N494        N  0.82413191  0.29411976  0.64600491    -0.74800
C495        C  0.79452686  0.29405890  0.62501053     0.86000
N496        N  0.79459468  0.32366174  0.60401432    -0.76500
C497        C  0.82430480  0.61442307  0.91824436    -0.10000
C498        C  0.82421536  0.58824128  0.93698298    -0.11600
C499        C  0.82430524  0.38458030  0.91825139    -0.10000
C500        C  0.82421466  0.41076385  0.93698869    -0.11600
C501        C  0.82430694  0.61443340  0.58175298    -0.10000
C502        C  0.82421610  0.58824948  0.56301595    -0.11600
C503        C  0.82430677  0.38459124  0.58176137    -0.10000
C504        C  0.82421708  0.41077258  0.56302243    -0.11600
C505        C  0.17577473  0.58824252  0.93698774    -0.10000
C506        C  0.17568217  0.61442540  0.91824982    -0.11600
C507        C  0.17569055  0.38458637  0.91824727    -0.10000
C508        C  0.17578060  0.41076736  0.93698619    -0.11600
C509        C  0.17577795  0.58823883  0.56302203    -0.10000
C510        C  0.17568789  0.61442033  0.58176058    -0.11600
C511        C  0.17569209  0.38458051  0.58175860    -0.10000
C512        C  0.17578365  0.41076325  0.56302057    -0.11600
C513        C  0.11492054  0.32381522  0.83175660    -0.10000
C514        C  0.08873666  0.32372443  0.81301968    -0.11600
C515        C  0.88507852  0.32381485  0.83176057    -0.10000
C516        C  0.91126057  0.32372543  0.81302243    -0.11600
C517        C  0.08873289  0.32372559  0.68698743    -0.10000
C518        C  0.11491536  0.32381506  0.66824959    -0.11600
C519        C  0.91125613  0.32372572  0.68698959    -0.10000
C520        C  0.88507244  0.32381710  0.66825249    -0.11600
C521        C  0.11490860  0.67519347  0.83175925    -0.10000
C522        C  0.08872722  0.67528419  0.81302068    -0.11600
C523        C  0.11491924  0.67519380  0.66825027    -0.10000
C524        C  0.08873534  0.67528587  0.68698717    -0.11600
C525        C  0.91125266  0.67529096  0.81301555    -0.10000
C526        C  0.88506940  0.67519932  0.83175293    -0.11600
C527        C  0.88507936  0.67520232  0.66824354    -0.10000
C528        C  0.91126067  0.67529191  0.68698212    -0.11600
C529        C  0.23680950  0.26266795  0.62500280    -0.10000
C530        C  0.26315884  0.23631558  0.62500152    -0.11600
C531        C  0.73680385  0.23634782  0.62501156    -0.10000
C532        C  0.76315721  0.26269725  0.62501161    -0.11600
C533        C  0.73683186  0.23631534  0.87500781    -0.10000
C534        C  0.76318207  0.26266790  0.87500768    -0.11600
C535        C  0.26318701  0.23634471  0.87499451    -0.10000
C536        C  0.23683462  0.26269408  0.87499516    -0.11600
C537        C  0.58873954  0.17528824  0.93699222    -0.10000
C538        C  0.61492282  0.17519399  0.91825489    -0.11600
C539        C  0.38508544  0.17520359  0.91824070    -0.10000
C540        C  0.41126593  0.17529182  0.93697996    -0.11600
C541        C  0.58872276  0.17529299  0.56302643    -0.10000
C542        C  0.61490365  0.17520522  0.58176545    -0.11600
C543        C  0.41124723  0.17529004  0.56301356    -0.10000
C544        C  0.38506364  0.17519594  0.58175064    -0.11600
C545        C  0.32421761  0.08825154  0.81301397    -0.10000
C546        C  0.32431049  0.11443620  0.83175038    -0.11600
C547        C  0.32421696  0.08823280  0.68698098    -0.10000
C548        C  0.32430431  0.11441427  0.66824208    -0.11600
C549        C  0.67568481  0.11441454  0.83176454    -0.10000
C550        C  0.67577271  0.08823312  0.81302573    -0.11600
C551        C  0.67577116  0.08825282  0.68699234    -0.10000
C552        C  0.67567804  0.11443752  0.66825571    -0.11600
C553        C  0.26318813  0.76266399  0.62501202    -0.10000
C554        C  0.23683514  0.73631430  0.62501115    -0.11600
C555        C  0.32431467  0.88457184  0.66825781    -0.10000
C556        C  0.32422140  0.91075599  0.68699456    -0.11600
C557        C  0.73683301  0.76269529  0.62499565    -0.10000
C558        C  0.76318329  0.73634383  0.62499567    -0.11600
C559        C  0.67568744  0.88459336  0.66824045    -0.10000
C560        C  0.67577506  0.91077489  0.68697913    -0.11600
C561        C  0.26315531  0.76269073  0.87500814    -0.10000
C562        C  0.23680486  0.73633851  0.87500714    -0.11600
C563        C  0.32421616  0.91077373  0.81302746    -0.10000
C564        C  0.32430331  0.88459189  0.83176605    -0.11600
C565        C  0.73680283  0.76266421  0.87499467    -0.10000
C566        C  0.76315584  0.73631555  0.87499499    -0.11600
C567        C  0.67577103  0.91075552  0.81301202    -0.10000
C568        C  0.67567777  0.88457097  0.83174874    -0.11600
C569        C  0.58872225  0.82371541  0.93697890    -0.10000
C570        C  0.61490305  0.82380364  0.91823981    -0.11600
C571        C  0.41124730  0.82371844  0.93699328    -0.10000
C572        C  0.38506328  0.82381169  0.91825658    -0.11600
C573        C  0.41126792  0.82371890  0.56302690    -0.10000
C574        C  0.38508791  0.82380742  0.58176650    -0.11600
C575        C  0.58874079  0.82372073  0.56301289    -0.10000
C576        C  0.61492427  0.82381451  0.58174996    -0.11600
loop_ 
_geom_bond_atom_site_label_1 
_geom_bond_atom_site_label_2 
_geom_bond_distance 
_geom_bond_site_symmetry_2 
_ccdc_geom_bond_type 
O1           C11   1.277       .  A
O1         Cu297   2.010       .  S
O2           C12   1.277       .  A
O2           Cu9   2.010       .  S
O3           C13   1.277       .  A
O3           Cu9   2.010       .  S
O4           C14   1.277       .  A
O4         Cu297   2.010       .  S
O5           C14   1.276       .  A
O5          Cu10   2.009       .  S
O6           C13   1.276       .  A
O6         Cu298   2.009       .  S
O7           C12   1.276       .  A
O7         Cu298   2.009       .  S
O8           C11   1.276       .  A
O8          Cu10   2.009       .  S
Cu9         O289   2.010       .  S
Cu9         O292   2.010       .  S
Cu9        Cu298   2.380       .  S
Cu10        O294   2.009   1_554  S
Cu10        O295   2.009   1_554  S
Cu10       Cu297   2.380       .  S
C11         C287   1.435       .  S
C12         C283   1.435       .  S
C13         C281   1.435       .  S
C14         C285   1.435       .  S
C15         C282   1.435       .  S
C15          N16   1.357       .  A
C15          N20   1.357       .  A
N16          C17   1.357       .  A
C17         C277   1.434       .  S
C17          N18   1.357       .  A
N18          C19   1.357       .  A
C19         C280   1.435       .  S
C19          N20   1.357       .  A
C21         C284   1.435       .  S
C21          N22   1.357       .  A
C21          N26   1.357       .  A
N22          C23   1.357       .  A
C23         C276   1.435       .  S
C23          N24   1.357       .  A
N24          C25   1.357       .  A
C25         C273   1.434       .  S
C25          N26   1.357       .  A
C27         C271   1.435       .  S
C27          N28   1.357       .  A
C27          N32   1.357       .  A
N28          C29   1.357       .  A
C29         C269   1.434       .  S
C29          N30   1.357       .  A
N30          C31   1.357       .  A
C31         C288   1.435       .  S
C31          N32   1.357       .  A
C33         C286   1.435       .  S
C33          N34   1.357       .  A
C33          N38   1.357       .  A
N34          C35   1.357       .  A
C35         C265   1.434       .  S
C35          N36   1.357       .  A
N36          C37   1.357       .  A
C37         C267   1.435       .  S
C37          N38   1.357       .  A
O39          C49   1.276       .  A
O39         Cu47   2.009       .  S
O40          C50   1.276       .  A
O40         Cu47   2.009   1_545  S
O41          C51   1.276       .  A
O41         Cu47   2.009       .  S
O42          C52   1.276       .  A
O42         Cu47   2.009   1_545  S
O43          C52   1.277       .  A
O43         Cu48   2.010   1_545  S
O44          C51   1.277       .  A
O44         Cu48   2.010       .  S
O45          C50   1.277       .  A
O45         Cu48   2.010   1_545  S
O46          C49   1.277       .  A
O46         Cu48   2.010       .  S
Cu47        Cu48   2.380       .  S
C49         C279   1.435       .  S
C50         C263   1.435       .  S
C51         C272   1.435       .  S
C52         C262   1.435       .  S
O53          C63   1.277       .  A
O53         Cu61   2.010       .  S
O54          C64   1.277       .  A
O54         Cu61   2.010   1_545  S
O55          C65   1.277       .  A
O55         Cu61   2.010       .  S
O56          C66   1.277       .  A
O56         Cu61   2.010   1_545  S
O57          C66   1.276       .  A
O57         Cu62   2.009   1_545  S
O58          C65   1.276       .  A
O58         Cu62   2.009       .  S
O59          C64   1.276       .  A
O59         Cu62   2.009   1_545  S
O60          C63   1.276       .  A
O60         Cu62   2.009       .  S
Cu61        Cu62   2.380       .  S
C63         C275   1.435       .  S
C64         C259   1.435       .  S
C65         C268   1.435       .  S
C66         C257   1.435       .  S
O67          C77   1.277       .  A
O67         Cu75   2.010       .  S
O68          C78   1.277       .  A
O68        Cu363   2.010       .  S
O69          C79   1.277       .  A
O69        Cu363   2.010       .  S
O70          C80   1.277       .  A
O70         Cu75   2.010       .  S
O71          C80   1.276       .  A
O71         Cu76   2.009       .  S
O72          C79   1.276       .  A
O72        Cu364   2.009       .  S
O73          C78   1.276       .  A
O73        Cu364   2.009       .  S
O74          C77   1.276       .  A
O74         Cu76   2.009       .  S
Cu75        O356   2.010   1_554  S
Cu75        O357   2.010   1_554  S
Cu75        Cu76   2.380       .  S
Cu76        O360   2.009   1_554  S
Cu76        O361   2.009   1_554  S
C77         C255   1.435       .  S
C78         C249   1.435       .  S
C79         C252   1.435       .  S
C80         C253   1.435       .  S
C81         C251   1.435       .  S
C81          N82   1.357       .  A
C81          N86   1.357       .  A
N82          C83   1.357       .  A
C83         C247   1.434       .  S
C83          N84   1.357       .  A
N84          C85   1.357       .  A
C85         C258   1.435       .  S
C85          N86   1.357       .  A
C87         C250   1.435       .  S
C87          N88   1.357       .  A
C87          N92   1.357       .  A
N88          C89   1.357       .  A
C89         C245   1.434       .  S
C89          N90   1.357       .  A
N90          C91   1.357       .  A
C91         C261   1.435       .  S
C91          N92   1.357       .  A
C93         C254   1.435       .  S
C93          N94   1.357       .  A
C93          N98   1.357       .  A
N94          C95   1.357       .  A
C95         C243   1.434       .  S
C95          N96   1.357       .  A
N96          C97   1.357       .  A
C97         C264   1.435       .  S
C97          N98   1.357       .  A
C99         C256   1.435       .  S
C99         N100   1.357       .  A
C99         N104   1.357       .  A
N100        C101   1.357       .  A
C101        C260   1.435       .  S
C101        N102   1.357       .  A
N102        C103   1.357       .  A
C103        C242   1.434       .  S
C103        N104   1.357       .  A
O105        C115   1.277       .  A
O105       Cu113   2.010       .  S
O106        C116   1.277       .  A
O106       Cu113   2.010   1_455  S
O107        C117   1.277       .  A
O107       Cu113   2.010       .  S
O108        C118   1.277       .  A
O108       Cu113   2.010   1_455  S
O109        C118   1.276       .  A
O109       Cu114   2.009   1_455  S
O110        C117   1.276       .  A
O110       Cu114   2.009       .  S
O111        C116   1.276       .  A
O111       Cu114   2.009   1_455  S
O112        C115   1.276       .  A
O112       Cu114   2.009       .  S
Cu113      Cu114   2.380       .  S
C115        C237   1.435       .  S
C116        C236   1.435       .  S
C117        C240   1.435       .  S
C118        C234   1.435       .  S
O119        C129   1.276       .  A
O119       Cu127   2.009       .  S
O120        C130   1.276       .  A
O120       Cu127   2.009   1_455  S
O121        C131   1.276       .  A
O121       Cu127   2.009       .  S
O122        C132   1.276       .  A
O122       Cu127   2.009   1_455  S
O123        C132   1.277       .  A
O123       Cu128   2.010   1_455  S
O124        C131   1.277       .  A
O124       Cu128   2.010       .  S
O125        C130   1.277       .  A
O125       Cu128   2.010   1_455  S
O126        C129   1.277       .  A
O126       Cu128   2.010       .  S
Cu127      Cu128   2.380       .  S
C129        C228   1.435       .  S
C130        C229   1.435       .  S
C131        C231   1.435       .  S
C132        C226   1.435       .  S
O133        C143   1.277       .  A
O133       Cu141   2.010       .  S
O134        C144   1.277       .  A
O134       Cu429   2.010       .  S
O135        C145   1.277       .  A
O135       Cu429   2.010       .  S
O136        C146   1.277       .  A
O136       Cu141   2.010       .  S
O137        C146   1.276       .  A
O137       Cu142   2.009       .  S
O138        C145   1.276       .  A
O138       Cu430   2.009       .  S
O139        C144   1.276       .  A
O139       Cu430   2.009       .  S
O140        C143   1.276       .  A
O140       Cu142   2.009       .  S
Cu141       O422   2.010   1_554  S
Cu141       O423   2.010   1_554  S
Cu141      Cu142   2.380       .  S
Cu142       O426   2.009   1_554  S
Cu142       O427   2.009   1_554  S
C143        C221   1.435       .  S
C144        C220   1.435       .  S
C145        C217   1.435       .  S
C146        C224   1.435       .  S
C147        C218   1.435       .  S
C147        N148   1.357       .  A
C147        N152   1.357       .  A
N148        C149   1.357       .  A
C149        C274   1.434       .  S
C149        N150   1.357       .  A
N150        C151   1.357       .  A
C151        C233   1.435       .  S
C151        N152   1.357       .  A
C153        C219   1.435       .  S
C153        N154   1.357       .  A
C153        N158   1.357       .  A
N154        C155   1.357       .  A
C155        C248   1.434       .  S
C155        N156   1.357       .  A
N156        C157   1.357       .  A
C157        C225   1.435       .  S
C157        N158   1.357       .  A
C159        C223   1.435       .  S
C159        N160   1.357       .  A
C159        N164   1.357       .  A
N160        C161   1.357       .  A
C161        C241   1.434       .  S
C161        N162   1.357       .  A
N162        C163   1.357       .  A
C163        C230   1.435       .  S
C163        N164   1.357       .  A
C165        C222   1.435       .  S
C165        N166   1.357       .  A
C165        N170   1.357       .  A
N166        C167   1.357       .  A
C167        C235   1.435       .  S
C167        N168   1.357       .  A
N168        C169   1.357       .  A
C169        C266   1.434       .  S
C169        N170   1.357       .  A
O171        C181   1.277       .  A
O171       Cu467   2.010       .  S
O172        C182   1.277       .  A
O172       Cu179   2.010       .  S
O173        C183   1.277       .  A
O173       Cu179   2.010       .  S
O174        C184   1.277       .  A
O174       Cu467   2.010       .  S
O175        C184   1.276       .  A
O175       Cu180   2.009       .  S
O176        C183   1.276       .  A
O176       Cu468   2.009       .  S
O177        C182   1.276       .  A
O177       Cu468   2.009       .  S
O178        C181   1.276       .  A
O178       Cu180   2.009       .  S
Cu179       O459   2.010   1_554  S
Cu179       O462   2.010   1_554  S
Cu179      Cu468   2.380       .  S
Cu180       O464   2.009       .  S
Cu180       O465   2.009       .  S
Cu180      Cu467   2.380       .  S
C181        C210   1.435       .  S
C182        C216   1.435       .  S
C183        C214   1.435       .  S
C184        C212   1.435       .  S
C185        C211   1.435       .  S
C185        N186   1.357       .  A
C185        N190   1.357       .  A
N186        C187   1.357       .  A
C187        C227   1.435       .  S
C187        N188   1.357       .  A
N188        C189   1.357       .  A
C189        C246   1.434       .  S
C189        N190   1.357       .  A
C191        C209   1.435       .  S
C191        N192   1.357       .  A
C191        N196   1.357       .  A
N192        C193   1.357       .  A
C193        C238   1.435       .  S
C193        N194   1.357       .  A
N194        C195   1.357       .  A
C195        C278   1.434       .  S
C195        N196   1.357       .  A
C197        C213   1.435       .  S
C197        N198   1.357       .  A
C197        N202   1.357       .  A
N198        C199   1.357       .  A
C199        C239   1.435       .  S
C199        N200   1.357       .  A
N200        C201   1.357       .  A
C201        C270   1.434       .  S
C201        N202   1.357       .  A
C203        C215   1.435       .  S
C203        N204   1.357       .  A
C203        N208   1.357       .  A
N204        C205   1.357       .  A
C205        C232   1.435       .  S
C205        N206   1.357       .  A
N206        C207   1.357       .  A
C207        C244   1.434       .  S
C207        N208   1.357       .  A
C209        C210   1.206       .  T
C211        C212   1.206       .  T
C213        C214   1.206       .  T
C215        C216   1.206       .  T
C217        C218   1.206       .  T
C219        C220   1.206       .  T
C221        C222   1.206       .  T
C223        C224   1.206       .  T
C225        C226   1.206       .  T
C227        C228   1.206       .  T
C229        C230   1.206       .  T
C231        C232   1.206       .  T
C233        C234   1.206       .  T
C235        C236   1.206       .  T
C237        C238   1.206       .  T
C239        C240   1.206       .  T
C241        C242   1.205       .  T
C243        C244   1.205       .  T
C245        C246   1.205       .  T
C247        C248   1.205       .  T
C249        C250   1.206       .  T
C251        C252   1.206       .  T
C253        C254   1.206       .  T
C255        C256   1.206       .  T
C257        C258   1.206       .  T
C259        C260   1.206       .  T
C261        C262   1.206       .  T
C263        C264   1.206       .  T
C265        C266   1.205       .  T
C267        C268   1.206       .  T
C269        C270   1.205       .  T
C271        C272   1.206       .  T
C273        C274   1.205       .  T
C275        C276   1.206       .  T
C277        C278   1.205       .  T
C279        C280   1.206       .  T
C281        C282   1.206       .  T
C283        C284   1.206       .  T
C285        C286   1.206       .  T
C287        C288   1.206       .  T
O289        C299   1.277       .  A
O290        C300   1.277       .  A
O290       Cu297   2.010   1_556  S
O291        C301   1.277       .  A
O291       Cu297   2.010   1_556  S
O292        C302   1.277       .  A
O293        C302   1.276       .  A
O293       Cu298   2.009       .  S
O294        C301   1.276       .  A
O295        C300   1.276       .  A
O296        C299   1.276       .  A
O296       Cu298   2.009       .  S
C299        C575   1.435       .  S
C300        C571   1.435       .  S
C301        C569   1.435       .  S
C302        C573   1.435       .  S
C303        C570   1.435       .  S
C303        N304   1.357       .  A
C303        N308   1.357       .  A
N304        C305   1.357       .  A
C305        C565   1.434       .  S
C305        N306   1.357       .  A
N306        C307   1.357       .  A
C307        C568   1.435       .  S
C307        N308   1.357       .  A
C309        C572   1.435       .  S
C309        N310   1.357       .  A
C309        N314   1.357       .  A
N310        C311   1.357       .  A
C311        C564   1.435       .  S
C311        N312   1.357       .  A
N312        C313   1.357       .  A
C313        C561   1.434       .  S
C313        N314   1.357       .  A
C315        C559   1.435       .  S
C315        N316   1.357       .  A
C315        N320   1.357       .  A
N316        C317   1.357       .  A
C317        C557   1.434       .  S
C317        N318   1.357       .  A
N318        C319   1.357       .  A
C319        C576   1.435       .  S
C319        N320   1.357       .  A
C321        C574   1.435       .  S
C321        N322   1.357       .  A
C321        N326   1.357       .  A
N322        C323   1.357       .  A
C323        C553   1.434       .  S
C323        N324   1.357       .  A
N324        C325   1.357       .  A
C325        C555   1.435       .  S
C325        N326   1.357       .  A
O327        C337   1.276       .  A
O327       Cu335   2.009       .  S
O328        C338   1.276       .  A
O328       Cu335   2.009   1_545  S
O329        C339   1.276       .  A
O329       Cu335   2.009       .  S
O330        C340   1.276       .  A
O330       Cu335   2.009   1_545  S
O331        C340   1.277       .  A
O331       Cu336   2.010   1_545  S
O332        C339   1.277       .  A
O332       Cu336   2.010       .  S
O333        C338   1.277       .  A
O333       Cu336   2.010   1_545  S
O334        C337   1.277       .  A
O334       Cu336   2.010       .  S
Cu335      Cu336   2.380       .  S
C337        C567   1.435       .  S
C338        C551   1.435       .  S
C339        C560   1.435       .  S
C340        C550   1.435       .  S
O341        C351   1.277       .  A
O341       Cu349   2.010       .  S
O342        C352   1.277       .  A
O342       Cu349   2.010   1_545  S
O343        C353   1.277       .  A
O343       Cu349   2.010       .  S
O344        C354   1.277       .  A
O344       Cu349   2.010   1_545  S
O345        C354   1.276       .  A
O345       Cu350   2.009   1_545  S
O346        C353   1.276       .  A
O346       Cu350   2.009       .  S
O347        C352   1.276       .  A
O347       Cu350   2.009   1_545  S
O348        C351   1.276       .  A
O348       Cu350   2.009       .  S
Cu349      Cu350   2.380       .  S
C351        C563   1.435       .  S
C352        C547   1.435       .  S
C353        C556   1.435       .  S
C354        C545   1.435       .  S
O355        C365   1.277       .  A
O355       Cu363   2.010       .  S
O356        C366   1.277       .  A
O357        C367   1.277       .  A
O358        C368   1.277       .  A
O358       Cu363   2.010       .  S
O359        C368   1.276       .  A
O359       Cu364   2.009       .  S
O360        C367   1.276       .  A
O361        C366   1.276       .  A
O362        C365   1.276       .  A
O362       Cu364   2.009       .  S
Cu363      Cu364   2.380       .  S
C365        C543   1.435       .  S
C366        C537   1.435       .  S
C367        C540   1.435       .  S
C368        C541   1.435       .  S
C369        C539   1.435       .  S
C369        N370   1.357       .  A
C369        N374   1.357       .  A
N370        C371   1.357       .  A
C371        C535   1.434       .  S
C371        N372   1.357       .  A
N372        C373   1.357       .  A
C373        C546   1.435       .  S
C373        N374   1.357       .  A
C375        C538   1.435       .  S
C375        N376   1.357       .  A
C375        N380   1.357       .  A
N376        C377   1.357       .  A
C377        C533   1.434       .  S
C377        N378   1.357       .  A
N378        C379   1.357       .  A
C379        C549   1.435       .  S
C379        N380   1.357       .  A
C381        C542   1.435       .  S
C381        N382   1.357       .  A
C381        N386   1.357       .  A
N382        C383   1.357       .  A
C383        C531   1.434       .  S
C383        N384   1.357       .  A
N384        C385   1.357       .  A
C385        C552   1.435       .  S
C385        N386   1.357       .  A
C387        C544   1.435       .  S
C387        N388   1.357       .  A
C387        N392   1.357       .  A
N388        C389   1.357       .  A
C389        C548   1.435       .  S
C389        N390   1.357       .  A
N390        C391   1.357       .  A
C391        C530   1.434       .  S
C391        N392   1.357       .  A
O393        C403   1.277       .  A
O393       Cu401   2.010       .  S
O394        C404   1.277       .  A
O394       Cu401   2.010   1_455  S
O395        C405   1.277       .  A
O395       Cu401   2.010       .  S
O396        C406   1.277       .  A
O396       Cu401   2.010   1_455  S
O397        C406   1.276       .  A
O397       Cu402   2.009   1_455  S
O398        C405   1.276       .  A
O398       Cu402   2.009       .  S
O399        C404   1.276       .  A
O399       Cu402   2.009   1_455  S
O400        C403   1.276       .  A
O400       Cu402   2.009       .  S
Cu401      Cu402   2.380       .  S
C403        C525   1.435       .  S
C404        C524   1.435       .  S
C405        C528   1.435       .  S
C406        C522   1.435       .  S
O407        C417   1.276       .  A
O407       Cu415   2.009       .  S
O408        C418   1.276       .  A
O408       Cu415   2.009   1_455  S
O409        C419   1.276       .  A
O409       Cu415   2.009       .  S
O410        C420   1.276       .  A
O410       Cu415   2.009   1_455  S
O411        C420   1.277       .  A
O411       Cu416   2.010   1_455  S
O412        C419   1.277       .  A
O412       Cu416   2.010       .  S
O413        C418   1.277       .  A
O413       Cu416   2.010   1_455  S
O414        C417   1.277       .  A
O414       Cu416   2.010       .  S
Cu415      Cu416   2.380       .  S
C417        C516   1.435       .  S
C418        C517   1.435       .  S
C419        C519   1.435       .  S
C420        C514   1.435       .  S
O421        C431   1.277       .  A
O421       Cu429   2.010       .  S
O422        C432   1.277       .  A
O423        C433   1.277       .  A
O424        C434   1.277       .  A
O424       Cu429   2.010       .  S
O425        C434   1.276       .  A
O425       Cu430   2.009       .  S
O426        C433   1.276       .  A
O427        C432   1.276       .  A
O428        C431   1.276       .  A
O428       Cu430   2.009       .  S
Cu429      Cu430   2.380       .  S
C431        C509   1.435       .  S
C432        C508   1.435       .  S
C433        C505   1.435       .  S
C434        C512   1.435       .  S
C435        C506   1.435       .  S
C435        N436   1.357       .  A
C435        N440   1.357       .  A
N436        C437   1.357       .  A
C437        C562   1.434       .  S
C437        N438   1.357       .  A
N438        C439   1.357       .  A
C439        C521   1.435       .  S
C439        N440   1.357       .  A
C441        C507   1.435       .  S
C441        N442   1.357       .  A
C441        N446   1.357       .  A
N442        C443   1.357       .  A
C443        C536   1.434       .  S
C443        N444   1.357       .  A
N444        C445   1.357       .  A
C445        C513   1.435       .  S
C445        N446   1.357       .  A
C447        C511   1.435       .  S
C447        N448   1.357       .  A
C447        N452   1.357       .  A
N448        C449   1.357       .  A
C449        C529   1.434       .  S
C449        N450   1.357       .  A
N450        C451   1.357       .  A
C451        C518   1.435       .  S
C451        N452   1.357       .  A
C453        C510   1.435       .  S
C453        N454   1.357       .  A
C453        N458   1.357       .  A
N454        C455   1.357       .  A
C455        C523   1.435       .  S
C455        N456   1.357       .  A
N456        C457   1.357       .  A
C457        C554   1.434       .  S
C457        N458   1.357       .  A
O459        C469   1.277       .  A
O460        C470   1.277       .  A
O460       Cu467   2.010       .  S
O461        C471   1.277       .  A
O461       Cu467   2.010       .  S
O462        C472   1.277       .  A
O463        C472   1.276       .  A
O463       Cu468   2.009   1_556  S
O464        C471   1.276       .  A
O465        C470   1.276       .  A
O466        C469   1.276       .  A
O466       Cu468   2.009   1_556  S
C469        C498   1.435       .  S
C470        C504   1.435       .  S
C471        C502   1.435       .  S
C472        C500   1.435       .  S
C473        C499   1.435       .  S
C473        N474   1.357       .  A
C473        N478   1.357       .  A
N474        C475   1.357       .  A
C475        C515   1.435       .  S
C475        N476   1.357       .  A
N476        C477   1.357       .  A
C477        C534   1.434       .  S
C477        N478   1.357       .  A
C479        C497   1.435       .  S
C479        N480   1.357       .  A
C479        N484   1.357       .  A
N480        C481   1.357       .  A
C481        C526   1.435       .  S
C481        N482   1.357       .  A
N482        C483   1.357       .  A
C483        C566   1.434       .  S
C483        N484   1.357       .  A
C485        C501   1.435       .  S
C485        N486   1.357       .  A
C485        N490   1.357       .  A
N486        C487   1.357       .  A
C487        C527   1.435       .  S
C487        N488   1.357       .  A
N488        C489   1.357       .  A
C489        C558   1.434       .  S
C489        N490   1.357       .  A
C491        C503   1.435       .  S
C491        N492   1.357       .  A
C491        N496   1.357       .  A
N492        C493   1.357       .  A
C493        C520   1.435       .  S
C493        N494   1.357       .  A
N494        C495   1.357       .  A
C495        C532   1.434       .  S
C495        N496   1.357       .  A
C497        C498   1.206       .  T
C499        C500   1.206       .  T
C501        C502   1.206       .  T
C503        C504   1.206       .  T
C505        C506   1.206       .  T
C507        C508   1.206       .  T
C509        C510   1.206       .  T
C511        C512   1.206       .  T
C513        C514   1.206       .  T
C515        C516   1.206       .  T
C517        C518   1.206       .  T
C519        C520   1.206       .  T
C521        C522   1.206       .  T
C523        C524   1.206       .  T
C525        C526   1.206       .  T
C527        C528   1.206       .  T
C529        C530   1.205       .  T
C531        C532   1.205       .  T
C533        C534   1.205       .  T
C535        C536   1.205       .  T
C537        C538   1.206       .  T
C539        C540   1.206       .  T
C541        C542   1.206       .  T
C543        C544   1.206       .  T
C545        C546   1.206       .  T
C547        C548   1.206       .  T
C549        C550   1.206       .  T
C551        C552   1.206       .  T
C553        C554   1.205       .  T
C555        C556   1.206       .  T
C557        C558   1.205       .  T
C559        C560   1.206       .  T
C561        C562   1.205       .  T
C563        C564   1.206       .  T
C565        C566   1.205       .  T
C567        C568   1.206       .  T
C569        C570   1.206       .  T
C571        C572   1.206       .  T
C573        C574   1.206       .  T
C575        C576   1.206       .  T
