geometry optimzed in LAMMPS
_audit_creation_date              2020-11-30 
_audit_creation_method            'lammps2cif' 
_symmetry_space_group_name_H-M    'P1' 
_symmetry_Int_Tables_number       1 
_symmetry_cell_setting            triclinic 
loop_ 
_symmetry_equiv_pos_as_xyz 
  x,y,z 
_cell_length_a                    31.9633580390978 
_cell_length_b                    30.66138232441173 
_cell_length_c                    29.512431727464143 
_cell_angle_alpha                 90.34315769452019 
_cell_angle_beta                  90.12020113092133 
_cell_angle_gamma                 89.89883085375317 
loop_ 
_atom_site_label 
_atom_site_type_symbol 
_atom_site_fract_x 
_atom_site_fract_y 
_atom_site_fract_z 
_atom_site_charge 
C1          C  0.01656338  0.99054488  0.23673168    -0.00140
C2          C  0.97367385  0.98956658  0.23944321    -0.00140
Zr3        Zr  0.28983432  0.27935788  0.27611873     2.17510
O4          O  0.31933204  0.34444967  0.31208021    -0.52030
O5          O  0.33989233  0.24572166  0.32793350    -0.75240
O6          O  0.24799688  0.30868522  0.33733398    -0.82020
O7          O  0.35751041  0.30147411  0.17000290    -0.83760
O8          O  0.18332903  0.27818733  0.33984059    -0.79390
O9          O  0.34077036  0.32613689  0.24037377    -0.91030
O10         O  0.34019996  0.17270927  0.31737497    -0.76990
O11         O  0.25562659  0.21489333  0.30075374    -0.86480
O12         O  0.32427299  0.22219438  0.23605218    -0.86170
O13         O  0.21753880  0.28930422  0.25533804    -0.72930
O14         O  0.28040648  0.29489272  0.19741955    -0.85060
Zr15       Zr  0.20727079  0.17997427  0.16078296     2.26420
Zr16       Zr  0.18337120  0.22335471  0.27901934     2.06270
Zr17       Zr  0.31354437  0.23681787  0.15705883     2.10050
Zr18       Zr  0.28917559  0.15764403  0.25948528     1.78760
O19         O  0.32116713  0.27098108  0.08326395    -0.93860
O20         O  0.26668281  0.11621459  0.32526881    -0.41670
O21         O  0.27943067  0.17138286  0.18066133    -0.78310
O22         O  0.21701638  0.16426163  0.23968329    -0.96990
O23         O  0.17394287  0.23804326  0.20021302    -0.90290
O24         O  0.24148942  0.24448495  0.13592659    -0.93140
C25         C  0.35377942  0.20737011  0.33658047     1.00610
C26         C  0.36139969  0.32862671  0.20325518     1.13550
C27         C  0.21118060  0.30534546  0.35392748     1.04330
O28         O  0.17520360  0.18138019  0.34821846    -0.95290
O29         O  0.13091140  0.16715553  0.26014948    -0.91040
O30         O  0.14457147  0.14503376  0.18829731    -0.84180
C31         C  0.12321575  0.14331155  0.22487882     1.10970
O32         O  0.22067193  0.37846882  0.19786969    -0.97270
Zr33       Zr  0.20881586  0.30242246  0.17654280     1.88940
O34         O  0.15445824  0.21131074  0.11091334    -0.73910
O35         O  0.11353731  0.25507345  0.28265431    -0.53180
O36         O  0.14413876  0.33885492  0.19886758    -0.97860
O37         O  0.23433165  0.34310230  0.11139332    -0.55070
O38         O  0.15587475  0.28462580  0.12165523    -0.74430
C39         C  0.14115239  0.25015133  0.10308704     0.97910
O40         O  0.20049315  0.10322668  0.13789895    -0.63250
O41         O  0.38492296  0.20868312  0.15472929    -0.58050
O42         O  0.24349645  0.15931988  0.09192964    -0.94740
O43         O  0.31190706  0.17667439  0.10224923    -0.93160
O44         O  0.35294994  0.12214747  0.23315495    -0.93520
O45         O  0.27873070  0.08072806  0.24186804    -0.92300
C46         C  0.28243908  0.15520941  0.08241726     1.16750
H47         H  0.35382565  0.22127304  0.24287392     0.32700
H48         H  0.20422260  0.13677606  0.24728784     0.43550
H49         H  0.23846298  0.24783547  0.10356793     0.37080
H50         H  0.20539202  0.31494845  0.26908775     0.33560
H51         H  0.29170905  0.09938765  0.33457735     0.25340
H52         H  0.10447878  0.25079038  0.31437950     0.31280
H53         H  0.13428598  0.35405267  0.17130924     0.37190
H54         H  0.36337791  0.10568473  0.25965859     0.31650
H55         H  0.39523370  0.21616891  0.12414579     0.30530
H56         H  0.35130886  0.26827901  0.07609995     0.32210
H57         H  0.21210057  0.36460914  0.10462771     0.31180
H58         H  0.26775439  0.08043223  0.21047893     0.35170
H59         H  0.22930859  0.09230209  0.13297011     0.27910
H60         H  0.32224850  0.33769215  0.34468864     0.32140
H61         H  0.20202052  0.39617935  0.17844449     0.34990
H62         H  0.40117576  0.22764976  0.17552111     0.27600
H63         H  0.19153969  0.08715629  0.16519990     0.40470
H64         H  0.19754052  0.19214050  0.36869691     0.30530
H65         H  0.26297628  0.13822763  0.34961732     0.38150
H66         H  0.23345308  0.32244690  0.08552983     0.30000
H67         H  0.11800230  0.28690540  0.28000905     0.30060
H68         H  0.29742793  0.36729459  0.31046172     0.30320
Zr69       Zr  0.78701579  0.18066642  0.17374772     2.17510
O70         O  0.81636189  0.11315007  0.14300258    -0.52030
O71         O  0.83235425  0.21186481  0.11673629    -0.75240
O72         O  0.74203069  0.14500188  0.11885499    -0.82020
O73         O  0.86538120  0.17121588  0.27239404    -0.83760
O74         O  0.67597621  0.17155940  0.11956989    -0.79390
O75         O  0.84566609  0.14158191  0.20489652    -0.91030
O76         O  0.83232358  0.28537615  0.12282605    -0.76990
O77         O  0.74924918  0.24205687  0.14646176    -0.86480
O78         O  0.82179086  0.24135578  0.20693150    -0.86170
O79         O  0.71688647  0.16973754  0.20047603    -0.72930
O80         O  0.78395915  0.16955938  0.25388474    -0.85060
Zr81       Zr  0.70803669  0.28433216  0.28671236     2.26420
Zr82       Zr  0.67882074  0.23259478  0.17390517     2.06270
Zr83       Zr  0.81689861  0.23169431  0.28713415     2.10050
Zr84       Zr  0.78322028  0.30290834  0.18137268     1.78760
O85         O  0.82882674  0.20016938  0.36159318    -0.93860
O86         O  0.75567163  0.33795836  0.11364578    -0.41670
O87         O  0.77860077  0.29398833  0.26141168    -0.78310
O88         O  0.71312755  0.29475984  0.20646023    -0.96990
O89         O  0.67466034  0.22260325  0.25404154    -0.90290
O90         O  0.74674917  0.22307204  0.31369622    -0.93140
C91         C  0.84504710  0.24973175  0.10501364     1.00610
C92         C  0.86930825  0.14333709  0.23986635     1.13550
C93         C  0.70367787  0.14392591  0.10599137     1.04330
O94         O  0.66450020  0.26543263  0.10053426    -0.95290
O95         O  0.62939650  0.29279854  0.19076193    -0.91040
O96         O  0.64458273  0.31997004  0.26052867    -0.84180
C97         C  0.62317946  0.32010986  0.22373417     1.10970
O98         O  0.72948195  0.08483229  0.26588721    -0.97270
Zr99       Zr  0.71399291  0.16164508  0.28016629     1.88940
O100        O  0.65579839  0.25561356  0.33894007    -0.73910
O101        O  0.60864994  0.20237513  0.17974689    -0.53180
O102        O  0.64966838  0.12280050  0.26160996    -0.97860
O103        O  0.73917568  0.12448715  0.34786257    -0.55070
O104        O  0.66545482  0.18240263  0.33811409    -0.74430
C105        C  0.64660361  0.21682254  0.35186225     0.97910
O106        O  0.70604067  0.36275641  0.30177046    -0.63250
O107        O  0.88688228  0.26317798  0.28711183    -0.58050
O108        O  0.74682377  0.30318027  0.35453869    -0.94740
O109        O  0.81510494  0.29561166  0.33641034    -0.93160
O110        O  0.84627326  0.34320322  0.20138825    -0.93520
O111        O  0.76947985  0.38032663  0.19305484    -0.92300
C112        C  0.78541505  0.31404025  0.35864125     1.16750
H113        H  0.85082763  0.24263707  0.19807860     0.32700
H114        H  0.69988280  0.32167158  0.19758101     0.43550
H115        H  0.74582962  0.22131065  0.34633389     0.37080
H116        H  0.70498070  0.14256679  0.19021552     0.33560
H117        H  0.77945573  0.35487193  0.10147192     0.25340
H118        H  0.59610769  0.20679116  0.14941203     0.31280
H119        H  0.64151696  0.10806277  0.29000094     0.37190
H120        H  0.85454263  0.35818142  0.17316037     0.31650
H121        H  0.90107310  0.24991701  0.31352059     0.30530
H122        H  0.85017494  0.21918542  0.37586405     0.32210
H123        H  0.71394314  0.11097862  0.36116891     0.31180
H124        H  0.76912114  0.38418579  0.22637428     0.35170
H125        H  0.73575151  0.37145975  0.30419261     0.27910
H126        H  0.81646675  0.11629998  0.10965128     0.32140
H127        H  0.71056348  0.06808402  0.28578156     0.34990
H128        H  0.90113138  0.25024814  0.26047196     0.27600
H129        H  0.69718396  0.37647118  0.27301292     0.40470
H130        H  0.68680839  0.25420672  0.08034280     0.30530
H131        H  0.75162306  0.31395160  0.09149164     0.38150
H132        H  0.74686374  0.14786007  0.36956579     0.30000
H133        H  0.61287533  0.17045845  0.18194391     0.30060
H134        H  0.79568619  0.09000333  0.14949146     0.30320
Zr135      Zr  0.70302238  0.69019527  0.28391336     2.17510
O136        O  0.71155240  0.68799093  0.36585469    -0.52030
O137        O  0.65053023  0.63451528  0.26304050    -0.75240
O138        O  0.64359681  0.72396651  0.32145946    -0.82020
O139        O  0.80163310  0.62123574  0.28460150    -0.83760
O140        O  0.63491406  0.79092418  0.29044297    -0.79390
O141        O  0.73734090  0.62799599  0.31623151    -0.91030
O142        O  0.64970953  0.63291377  0.18620333    -0.76990
O143        O  0.66774052  0.72198159  0.22134654    -0.86480
O144        O  0.73219185  0.65465850  0.21938718    -0.86170
O145        O  0.71869104  0.76665095  0.28872839    -0.72930
O146        O  0.77665854  0.70489924  0.28498014    -0.85060
Zr147      Zr  0.78685141  0.77895135  0.16140201     2.26420
Zr148      Zr  0.68366927  0.79820778  0.22530898     2.06270
Zr149      Zr  0.80542971  0.67021897  0.21968454     2.10050
Zr150      Zr  0.69780139  0.68702391  0.15688143     1.78760
O151        O  0.87571371  0.66363907  0.25091240    -0.93860
O152        O  0.63049711  0.70571084  0.12322454    -0.41670
O153        O  0.77131503  0.70248002  0.15606639    -0.78310
O154        O  0.71297559  0.76322086  0.15939670    -0.96990
O155        O  0.75742104  0.81393957  0.22622553    -0.90290
O156        O  0.82156668  0.74631295  0.22378998    -0.93140
C157        C  0.63699335  0.61925643  0.22483807     1.00610
C158        C  0.77376628  0.61083492  0.31409534     1.13550
C159        C  0.62590045  0.76152735  0.32028350     1.04330
O160        O  0.61340977  0.80562521  0.19420141    -0.95290
O161        O  0.68655435  0.84901809  0.16114537    -0.91040
O162        O  0.75242663  0.84370675  0.13289893    -0.84180
C163        C  0.71536030  0.86007132  0.13295474     1.10970
O164        O  0.78495378  0.77315328  0.37038109    -0.97270
Zr165      Zr  0.79221906  0.78106096  0.28857542     1.88940
O166        O  0.84029565  0.83240881  0.18384020    -0.73910
O167        O  0.68184552  0.87058250  0.25961448    -0.53180
O168        O  0.77317187  0.85139401  0.32149921    -0.97860
O169        O  0.85717994  0.76007752  0.32614178    -0.55070
O170        O  0.84402636  0.83172297  0.26055975    -0.74430
C171        C  0.85575345  0.84580073  0.22179318     0.97910
O172        O  0.79025626  0.78713846  0.07903062    -0.63250
O173        O  0.80782069  0.59795643  0.18486213    -0.58050
O174        O  0.84789996  0.74392337  0.12734852    -0.94740
O175        O  0.85327055  0.67517256  0.15538886    -0.93160
O176        O  0.71924730  0.61960978  0.11950245    -0.93520
O177        O  0.69994070  0.69474689  0.07483830    -0.92300
C178        C  0.86432543  0.70561562  0.12809024     1.16750
H179        H  0.72744317  0.62357453  0.22024591     0.32700
H180        H  0.70085000  0.77486140  0.13203765     0.43550
H181        H  0.85144311  0.75072393  0.22217669     0.37080
H182        H  0.70817525  0.77876030  0.31673864     0.33560
H183        H  0.61994808  0.67797066  0.11022849     0.25340
H184        H  0.65228742  0.87992378  0.25679358     0.31280
H185        H  0.79989333  0.86411794  0.33222756     0.37190
H186        H  0.69284945  0.60630962  0.10858094     0.31650
H187        H  0.83696520  0.58790417  0.18946855     0.30530
H188        H  0.88432765  0.63334436  0.24375766     0.32210
H189        H  0.87035401  0.78794236  0.33544436     0.31180
H190        H  0.72755441  0.70801632  0.06869703     0.35170
H191        H  0.79879318  0.75842644  0.06660363     0.27910
H192        H  0.68647880  0.67322619  0.37737445     0.32140
H193        H  0.80221328  0.79657049  0.38408260     0.34990
H194        H  0.79093109  0.57908699  0.20482848     0.27600
H195        H  0.76075517  0.78969123  0.06907841     0.40470
H196        H  0.59845338  0.77912279  0.20417158     0.30530
H197        H  0.61189273  0.71163600  0.14932959     0.38150
H198        H  0.87539699  0.74872076  0.30168108     0.30000
H199        H  0.68586745  0.86544813  0.29242593     0.30060
H200        H  0.70877734  0.71856809  0.37639265     0.30320
Zr201      Zr  0.20125613  0.78035578  0.16120772     2.17510
O202        O  0.19330342  0.80696502  0.08385684    -0.52030
O203        O  0.14956779  0.83401617  0.18822359    -0.75240
O204        O  0.14303168  0.74469338  0.12287100    -0.82020
O205        O  0.30457138  0.84535381  0.15977355    -0.83760
O206        O  0.13057830  0.67878210  0.15435036    -0.79390
O207        O  0.24017476  0.83969271  0.12753487    -0.91030
O208        O  0.14881973  0.83064723  0.26483283    -0.76990
O209        O  0.16747873  0.74623000  0.22337513    -0.86480
O210        O  0.23206686  0.81199513  0.22700917    -0.86170
O211        O  0.21611732  0.70364754  0.15221526    -0.72930
O212        O  0.27450635  0.76333178  0.15699151    -0.85060
Zr213      Zr  0.28659780  0.68313710  0.27912361     2.26420
Zr214      Zr  0.18245111  0.66984190  0.21559364     2.06270
Zr215      Zr  0.30507808  0.79449226  0.22346673     2.10050
Zr216      Zr  0.19945011  0.77682493  0.28914984     1.78760
O217        O  0.37632992  0.79612043  0.19447821    -0.93860
O218        O  0.13413773  0.75944251  0.32738847    -0.41670
O219        O  0.27231266  0.75977909  0.28657627    -0.78310
O220        O  0.21289057  0.70025538  0.28342552    -0.96990
O221        O  0.25576729  0.65196728  0.21287545    -0.90290
O222        O  0.32048320  0.71794206  0.21723255    -0.93140
C223        C  0.13624952  0.84683606  0.22728151     1.00610
C224        C  0.27678389  0.85659962  0.13045692     1.13550
C225        C  0.12279634  0.70866121  0.12485333     1.04330
O226        O  0.11308776  0.66389683  0.24887538    -0.95290
O227        O  0.18511997  0.61355797  0.27418300    -0.91040
O228        O  0.24760818  0.62139114  0.31034444    -0.84180
C229        C  0.21191876  0.60266858  0.30476943     1.10970
O230        O  0.28212351  0.69685229  0.06956022    -0.97270
Zr231      Zr  0.28937444  0.68690169  0.15115638     1.88940
O232        O  0.33977267  0.63114768  0.25197242    -0.73910
O233        O  0.17876978  0.59985284  0.17639775    -0.53180
O234        O  0.26747672  0.61874103  0.11555075    -0.97860
O235        O  0.35424538  0.70876741  0.11434610    -0.55070
O236        O  0.34061833  0.63332674  0.17539647    -0.74430
C237        C  0.35392295  0.61835766  0.21330994     0.97910
O238        O  0.30915111  0.66250689  0.35515547    -0.63250
O239        O  0.31011725  0.86724074  0.25691435    -0.58050
O240        O  0.33973103  0.72432699  0.32116570    -0.94740
O241        O  0.34977620  0.79133417  0.29013811    -0.93160
O242        O  0.22618711  0.84260721  0.32568576    -0.93520
O243        O  0.20496474  0.76476995  0.37048493    -0.92300
C244        C  0.35754245  0.76195212  0.31981535     1.16750
H245        H  0.22770823  0.84316604  0.22790989     0.32700
H246        H  0.20049121  0.68768921  0.31010944     0.43550
H247        H  0.35033379  0.71305202  0.21822621     0.37080
H248        H  0.20489505  0.69269919  0.12398185     0.33560
H249        H  0.12453772  0.78740871  0.34076912     0.25340
H250        H  0.14924546  0.59066060  0.17959506     0.31280
H251        H  0.29365085  0.60502549  0.10454949     0.37190
H252        H  0.20749630  0.84786507  0.35185772     0.31650
H253        H  0.33854176  0.87741499  0.24898194     0.30530
H254        H  0.38653707  0.82582470  0.20172837     0.32210
H255        H  0.36710503  0.68120109  0.10357215     0.31180
H256        H  0.23110052  0.74776211  0.37421387     0.35170
H257        H  0.28380381  0.66398461  0.37435123     0.27910
H258        H  0.16801094  0.82560511  0.08420998     0.32140
H259        H  0.29952989  0.67383822  0.05530662     0.34990
H260        H  0.29114931  0.88586308  0.23881739     0.27600
H261        H  0.31649180  0.63115567  0.35339480     0.40470
H262        H  0.09926655  0.69208272  0.24228465     0.30530
H263        H  0.11400025  0.75342862  0.30260700     0.38150
H264        H  0.37279589  0.71873932  0.13919808     0.30000
H265        H  0.18177022  0.60699506  0.14389632     0.30060
H266        H  0.18616879  0.78152569  0.06454762     0.30320
C267        C  0.30484323  0.97903613  0.94901958    -0.00140
C268        C  0.30313707  0.98979005  0.99402068    -0.00140
C269        C  0.01229107  0.26800093  0.96995719    -0.00140
C270        C  0.97006976  0.26602635  0.96622472    -0.00140
C271        C  0.67512482  0.00945681  0.97365700    -0.00140
C272        C  0.68055191  0.96490719  0.97179781    -0.00140
C273        C  0.97153870  0.67613394  0.97230136    -0.00140
C274        C  0.01423373  0.67178259  0.96979961    -0.00140
Zr275      Zr  0.28069699  0.68964253  0.65293705     2.17510
O276        O  0.27736680  0.69855254  0.57081676    -0.52030
O277        O  0.33543653  0.63417283  0.66139896    -0.75240
O278        O  0.34023838  0.72744986  0.62231800    -0.82020
O279        O  0.18295966  0.61925646  0.64336914    -0.83760
O280        O  0.35074865  0.79030292  0.66117401    -0.79390
O281        O  0.24625800  0.63277221  0.61203691    -0.91030
O282        O  0.34125628  0.62512694  0.73737078    -0.76990
O283        O  0.31791571  0.71202054  0.71857168    -0.86480
O284        O  0.25318717  0.64498455  0.71156070    -0.86170
O285        O  0.26570464  0.76586336  0.66035898    -0.72930
O286        O  0.20690931  0.70354760  0.65604268    -0.85060
Zr287      Zr  0.20303308  0.75963628  0.79066234     2.26420
Zr288      Zr  0.30271334  0.78816991  0.72693644     2.06270
Zr289      Zr  0.17960022  0.66004677  0.71622129     2.10050
Zr290      Zr  0.28969223  0.66821669  0.77734204     1.78760
O291        O  0.10946757  0.65322393  0.68466036    -0.93860
O292        O  0.35516211  0.68345518  0.81674208    -0.41670
O293        O  0.21629561  0.68294352  0.78303484    -0.78310
O294        O  0.27654137  0.74425950  0.78777965    -0.96990
O295        O  0.22926195  0.80362641  0.73105870    -0.90290
O296        O  0.16552481  0.73614269  0.72521710    -0.93140
C297        C  0.35267881  0.61710362  0.69653842     1.00610
C298        C  0.21074000  0.61395615  0.61190460     1.13550
C299        C  0.35877734  0.76409211  0.62787748     1.04330
O300        O  0.37359905  0.79351610  0.75677996    -0.95290
O301        O  0.29964784  0.83104102  0.79738179    -0.91040
O302        O  0.23720682  0.81841760  0.83106608    -0.84180
C303        C  0.27290314  0.83717922  0.82953130     1.10970
O304        O  0.20069726  0.78832345  0.58393612    -0.97270
Zr305      Zr  0.19227730  0.77944955  0.66553590     1.88940
O306        O  0.14935102  0.81523500  0.78025544    -0.73910
O307        O  0.30170711  0.86399613  0.70289760    -0.53180
O308        O  0.20439656  0.85591865  0.64775685    -0.97860
O309        O  0.12973747  0.75912251  0.62311659    -0.55070
O310        O  0.13857827  0.82059591  0.70443577    -0.74430
C311        C  0.12955781  0.83003238  0.74562522     0.97910
O312        O  0.20165017  0.75031917  0.87285708    -0.63250
O313        O  0.17989015  0.58548343  0.74426909    -0.58050
O314        O  0.14090904  0.72615621  0.81952566    -0.94740
O315        O  0.12845889  0.66355759  0.77996190    -0.93160
O316        O  0.27386808  0.59336129  0.79830299    -0.93520
O317        O  0.28512583  0.65953980  0.85916586    -0.92300
C318        C  0.12003587  0.69131702  0.81201611     1.16750
H319        H  0.25822480  0.61445947  0.70531571     0.32700
H320        H  0.28972388  0.75225653  0.81607549     0.43550
H321        H  0.13575495  0.74041808  0.72867677     0.37080
H322        H  0.27566876  0.78153429  0.63425729     0.33560
H323        H  0.36760607  0.65441501  0.82254502     0.25340
H324        H  0.33069942  0.87432094  0.70784905     0.31280
H325        H  0.17655973  0.86765169  0.63940733     0.37190
H326        H  0.30114755  0.58073546  0.80736036     0.31650
H327        H  0.15000742  0.57710915  0.74527635     0.30530
H328        H  0.10167222  0.62243309  0.68992443     0.32210
H329        H  0.11580710  0.78710893  0.61595922     0.31180
H330        H  0.27845507  0.68902523  0.87094643     0.35170
H331        H  0.19734702  0.71871488  0.87771830     0.27910
H332        H  0.30565525  0.69256451  0.55871918     0.32140
H333        H  0.18068677  0.81139002  0.57489915     0.34990
H334        H  0.19170911  0.56777850  0.71920659     0.27600
H335        H  0.23076311  0.75510813  0.88323853     0.40470
H336        H  0.38813744  0.76733902  0.74484271     0.30530
H337        H  0.37344724  0.69647170  0.79342662     0.38150
H338        H  0.11124731  0.74514058  0.64561206     0.30000
H339        H  0.29852185  0.86262338  0.66953956     0.30060
H340        H  0.27297595  0.73014977  0.56594966     0.30320
C341        C  0.01974445  0.97723257  0.74815871    -0.00140
C342        C  0.97721590  0.98048234  0.74363144    -0.00140
Zr343      Zr  0.27848970  0.27781312  0.65714823     2.17510
O344        O  0.28678872  0.29286970  0.57661450    -0.52030
O345        O  0.33153733  0.33239444  0.67367790    -0.75240
O346        O  0.23846890  0.33936662  0.62993328    -0.82020
O347        O  0.34781701  0.17639805  0.65194523    -0.83760
O348        O  0.17746139  0.34848937  0.66820591    -0.79390
O349        O  0.33170165  0.23863803  0.61431165    -0.91030
O350        O  0.33855328  0.33896192  0.74969699    -0.76990
O351        O  0.25222473  0.31366546  0.72288138    -0.86480
O352        O  0.31903911  0.24967776  0.71805354    -0.86170
O353        O  0.20532448  0.25979960  0.65948379    -0.72930
O354        O  0.26733623  0.20059421  0.65620527    -0.85060
Zr355      Zr  0.20908279  0.18893876  0.78656802     2.26420
Zr356      Zr  0.17961143  0.29382581  0.72776391     2.06270
Zr357      Zr  0.30624985  0.17261073  0.71912500     2.10050
Zr358      Zr  0.29254173  0.28525150  0.78369001     1.78760
O359        O  0.31101371  0.09955238  0.68668841    -0.93860
O360        O  0.27096855  0.35319154  0.82000498    -0.41670
O361        O  0.28135530  0.20795929  0.78564871    -0.78310
O362        O  0.22005708  0.26625728  0.78965364    -0.96990
O363        O  0.16836380  0.21698916  0.72619825    -0.90690
O364        O  0.23433414  0.15312347  0.72107289    -0.93140
C365        C  0.34810588  0.34974140  0.70911009     1.00610
C366        C  0.35208791  0.20277276  0.61887443     1.13550
C367        C  0.20337577  0.35852993  0.63679081     1.04330
O368        O  0.17224401  0.36408869  0.76579759    -0.95290
O369        O  0.13183981  0.28298943  0.79187153    -0.91040
O370        O  0.14841974  0.21731715  0.82114424    -0.84180
C371        C  0.12650996  0.25176211  0.82035819     1.10970
O372        O  0.20029035  0.18836022  0.57780834    -0.97270
Zr373      Zr  0.19482396  0.18261650  0.65999639     1.88940
O374        O  0.15414199  0.13564950  0.77135753    -0.73910
O375        O  0.10810739  0.29332908  0.69920559    -0.53180
O376        O  0.12636102  0.20146952  0.62929747    -0.97860
O377        O  0.20962076  0.11245909  0.62394887    -0.55070
O378        O  0.14689312  0.13196234  0.69476892    -0.74430
C379        C  0.13713307  0.12045501  0.73506796     0.97910
O380        O  0.21424136  0.18433990  0.86901815    -0.63250
O381        O  0.37820686  0.17053704  0.74661980    -0.58050
O382        O  0.24384214  0.12527706  0.81448294    -0.94740
O383        O  0.30806058  0.12143558  0.78208819    -0.93160
O384        O  0.36230639  0.26898565  0.81238962    -0.93520
O385        O  0.29581159  0.28009942  0.86596953    -0.92300
C386        C  0.28054981  0.10893177  0.81085470     1.16750
H387        H  0.34846059  0.25553269  0.71390464     0.32700
H388        H  0.20976047  0.27799052  0.81795497     0.43550
H389        H  0.23091817  0.12191447  0.72326822     0.37080
H390        H  0.19096364  0.27101824  0.63318620     0.33560
H391        H  0.29611643  0.36349308  0.83649065     0.25340
H392        H  0.09975513  0.32441529  0.69813981     0.31280
H393        H  0.11373504  0.17323864  0.62030660     0.37190
H394        H  0.37341038  0.29740534  0.82299966     0.31650
H395        H  0.38918256  0.14198329  0.73620325     0.30530
H396        H  0.33949983  0.08934203  0.69456792     0.32210
H397        H  0.18187621  0.10092793  0.61496153     0.31180
H398        H  0.26944553  0.26553521  0.87468003     0.35170
H399        H  0.24458360  0.18307933  0.87576338     0.27910
H400        H  0.29611147  0.32356283  0.57430623     0.32140
H401        H  0.17715208  0.17055816  0.56523975     0.34990
H402        H  0.39349286  0.19219338  0.72826454     0.27600
H403        H  0.20574274  0.21341540  0.88054568     0.40470
H404        H  0.19568924  0.38186992  0.75422873     0.30530
H405        H  0.26758931  0.37408672  0.79481328     0.38150
H406        H  0.21890206  0.09306906  0.64871188     0.30000
H407        H  0.11065107  0.28426416  0.66709398     0.30060
H408        H  0.25836341  0.29215629  0.56319958     0.30320
Zr409      Zr  0.78609417  0.18961936  0.78264770     2.17510
O410        O  0.81488872  0.17532090  0.85788680    -0.52030
O411        O  0.83683323  0.13340576  0.76513677    -0.75240
O412        O  0.74235382  0.13681940  0.82144248    -0.82020
O413        O  0.86224399  0.28828302  0.77776447    -0.83760
O414        O  0.68152744  0.12373105  0.78399251    -0.79390
O415        O  0.84248446  0.22881701  0.81786809    -0.91030
O416        O  0.84727485  0.13027702  0.68951146    -0.76990
O417        O  0.75837591  0.15083022  0.71964014    -0.86480
O418        O  0.82398665  0.21593678  0.71946159    -0.86170
O419        O  0.71323695  0.20920303  0.78330808    -0.72930
O420        O  0.77516138  0.26714746  0.78254330    -0.85060
Zr421      Zr  0.71096846  0.27297660  0.65279394     2.26420
Zr422      Zr  0.68557722  0.17103038  0.71822466     2.06270
Zr423      Zr  0.81151765  0.29287305  0.71725429     2.10050
Zr424      Zr  0.79572602  0.17833856  0.65610602     1.78760
O425        O  0.81389881  0.36485349  0.75245217    -0.93860
O426        O  0.77870146  0.10630577  0.62617394    -0.41670
O427        O  0.78382561  0.25535099  0.65263864    -0.78310
O428        O  0.72284726  0.19585455  0.65304729    -0.96990
O429        O  0.67347730  0.24784432  0.71657041    -0.90290
O430        O  0.73919016  0.31211756  0.71528084    -0.93140
C431        C  0.85568485  0.11855297  0.73012421     1.00610
C432        C  0.86608601  0.26163100  0.81068902     1.13550
C433        C  0.70624087  0.11872513  0.81785679     1.04330
O434        O  0.68056244  0.09739528  0.68734842    -0.95290
O435        O  0.63698279  0.17759298  0.65452430    -0.91040
O436        O  0.64942951  0.24239192  0.61997151    -0.84180
C437        C  0.62917930  0.20693986  0.62465448     1.10970
O438        O  0.71713055  0.28881508  0.86064238    -0.97270
Zr439      Zr  0.70247035  0.28605491  0.77945380     1.88940
O440        O  0.65673478  0.32712999  0.66805384    -0.73910
O441        O  0.61358943  0.17125836  0.74518434    -0.53180
O442        O  0.63963545  0.26456395  0.82018071    -0.97860
O443        O  0.71318038  0.36069745  0.80625344    -0.55070
O444        O  0.64807338  0.32968915  0.74428855    -0.74430
C445        C  0.63757774  0.34037370  0.70386240     0.97910
O446        O  0.70801139  0.27455487  0.56985580    -0.63250
O447        O  0.88071288  0.29831694  0.68321562    -0.58050
O448        O  0.74771732  0.33273659  0.62066129    -0.94740
O449        O  0.81067561  0.34262584  0.65406810    -0.93160
O450        O  0.86165246  0.19782517  0.62035934    -0.93520
O451        O  0.79024945  0.17787201  0.57379399    -0.92300
C452        C  0.78307560  0.35151784  0.62393855     1.16750
H453        H  0.85359206  0.21035273  0.72265546     0.32700
H454        H  0.71177254  0.18269239  0.62575596     0.43550
H455        H  0.73549396  0.34314272  0.71145895     0.37080
H456        H  0.69940236  0.20094633  0.81094798     0.33560
H457        H  0.80532805  0.09518971  0.61343111     0.25340
H458        H  0.60532562  0.14015828  0.74573806     0.31280
H459        H  0.63006460  0.29142278  0.83580985     0.37190
H460        H  0.87384665  0.16971100  0.61023158     0.31650
H461        H  0.89393032  0.32368809  0.69839690     0.30530
H462        H  0.84114390  0.37710638  0.74303029     0.32210
H463        H  0.68604251  0.36935833  0.81974546     0.31180
H464        H  0.78253492  0.20818063  0.56590583     0.35170
H465        H  0.73692255  0.28016030  0.55944635     0.27910
H466        H  0.80760915  0.14500250  0.86596776     0.32140
H467        H  0.69507576  0.30730330  0.87438365     0.34990
H468        H  0.89645536  0.27274898  0.69451474     0.27600
H469        H  0.70302783  0.24404094  0.56010194     0.40470
H470        H  0.70297036  0.08080760  0.70282404     0.30530
H471        H  0.77384579  0.08812397  0.65326214     0.38150
H472        H  0.71542404  0.37875507  0.77869559     0.30000
H473        H  0.61549834  0.17998466  0.77747761     0.30060
H474        H  0.79920148  0.19422829  0.87918596     0.30320
Zr475      Zr  0.78002268  0.77541974  0.78811916     2.17510
O476        O  0.78073838  0.78548046  0.87021543    -0.52030
O477        O  0.83526608  0.82878240  0.77514054    -0.75240
O478        O  0.83782111  0.73758080  0.82384624    -0.82020
O479        O  0.68114068  0.84571623  0.78514468    -0.83760
O480        O  0.85425956  0.67586105  0.78525850    -0.79390
O481        O  0.74352526  0.83677001  0.82147467    -0.91030
O482        O  0.84468810  0.82977097  0.69928863    -0.76990
O483        O  0.81902770  0.74916689  0.72514168    -0.86480
O484        O  0.75403252  0.81466316  0.72462093    -0.86170
O485        O  0.76615284  0.69836787  0.78563513    -0.72930
O486        O  0.70667397  0.75877406  0.78358068    -0.85060
Zr487      Zr  0.70606042  0.69536076  0.65108112     2.26420
Zr488      Zr  0.80486161  0.67261158  0.72125837     2.06270
Zr489      Zr  0.68109746  0.79765156  0.71907536     2.10050
Zr490      Zr  0.79199801  0.78737503  0.66156330     1.78760
O491        O  0.61020866  0.79770720  0.74912112    -0.93860
O492        O  0.85667243  0.76840339  0.62256334    -0.41670
O493        O  0.71902925  0.77208918  0.65442532    -0.78310
O494        O  0.77950419  0.71120728  0.65594223    -0.96990
O495        O  0.73189307  0.65571653  0.71447737    -0.90290
O496        O  0.66704249  0.72117566  0.71419264    -0.93140
C497        C  0.85420101  0.84205658  0.73949958     1.00610
C498        C  0.70778220  0.85514116  0.81634667     1.13550
C499        C  0.85970084  0.70280199  0.81838515     1.04330
O500        O  0.87588224  0.66509474  0.69254401    -0.95290
O501        O  0.80589543  0.62406715  0.65547160    -0.91040
O502        O  0.74474231  0.63589012  0.61776313    -0.84180
C503        C  0.77977903  0.61627082  0.62324127     1.10970
O504        O  0.69057137  0.68730918  0.86000399    -0.97270
Zr505      Zr  0.69323250  0.68197425  0.77754205     1.88940
O506        O  0.65656031  0.63641118  0.66326016    -0.73910
O507        O  0.80269667  0.59954763  0.75305276    -0.53180
O508        O  0.71533288  0.61274555  0.81001759    -0.97860
O509        O  0.62257707  0.69295474  0.80671811    -0.55070
O510        O  0.65073051  0.62734494  0.73905480    -0.74430
C511        C  0.64151651  0.61700366  0.69797806     0.97910
O512        O  0.70373508  0.69418514  0.56812432    -0.63250
O513        O  0.67590569  0.87140355  0.68918050    -0.58050
O514        O  0.64461585  0.73050192  0.61869505    -0.94740
O515        O  0.63493182  0.79648028  0.65293021    -0.93160
O516        O  0.77770774  0.86181926  0.63767859    -0.93520
O517        O  0.78781722  0.79245985  0.57937556    -0.92300
C518        C  0.62594015  0.76747505  0.62282222     1.16750
H519        H  0.75842688  0.84562700  0.72847472     0.32700
H520        H  0.79374014  0.70159458  0.62884719     0.43550
H521        H  0.63752698  0.71593882  0.70973237     0.37080
H522        H  0.77584467  0.68448771  0.81301128     0.33560
H523        H  0.87003131  0.79673921  0.61580291     0.25340
H524        H  0.83067032  0.58711903  0.74654062     0.31280
H525        H  0.68906770  0.59646395  0.81522782     0.37190
H526        H  0.80519015  0.87331207  0.62801006     0.31650
H527        H  0.64857357  0.88237658  0.70016152     0.30530
H528        H  0.59814160  0.82589616  0.73935565     0.32210
H529        H  0.61262916  0.66337358  0.81453337     0.31180
H530        H  0.77249935  0.76590370  0.56983555     0.35170
H531        H  0.69792046  0.72458769  0.55887059     0.27910
H532        H  0.80879089  0.79718957  0.87771066     0.32140
H533        H  0.67493293  0.66135022  0.87028948     0.34990
H534        H  0.69685773  0.88867863  0.70626412     0.27600
H535        H  0.73289985  0.68946392  0.55795517     0.40470
H536        H  0.88997612  0.69261442  0.70131697     0.30530
H537        H  0.87464164  0.75538860  0.64627963     0.38150
H538        H  0.60537813  0.70136041  0.78024846     0.30000
H539        H  0.80246597  0.60409275  0.78629062     0.30060
H540        H  0.78034712  0.75573240  0.88309206     0.30320
C541        C  0.49865426  0.50235095  0.69018170    -0.00140
C542        C  0.49502655  0.45786969  0.68562791    -0.00140
C543        C  0.49544521  0.45424686  0.19871352    -0.00140
C544        C  0.49704161  0.49901757  0.20199099    -0.00140
C545        C  0.81463677  0.48026978  0.44672714    -0.00140
C546        C  0.81751485  0.48308816  0.49268673    -0.00140
C547        C  0.49179073  0.79648204  0.44851265    -0.00140
C548        C  0.48972486  0.79421865  0.49520739    -0.00140
C549        C  0.18559441  0.45234485  0.47320728    -0.00140
C550        C  0.18348643  0.49531868  0.46076712    -0.00140
C551        C  0.49416807  0.17718240  0.50067717    -0.00140
C552        C  0.49661441  0.18031318  0.45435249    -0.00140
C553        C  0.59063568  0.81374741  0.56375741    -0.09860
C554        C  0.59121129  0.77613018  0.59084388     0.06340
C555        C  0.55877943  0.74569773  0.58604975    -0.03620
C556        C  0.52873477  0.75086875  0.55230367    -0.08070
C557        C  0.52770082  0.78811250  0.52467685     0.05460
C558        C  0.55858839  0.82042206  0.53158933    -0.03100
Br559      Br  0.55633485  0.87545926  0.50137125    -0.02790
H560        H  0.61477059  0.83818651  0.56805068     0.09370
H561        H  0.50459281  0.72639925  0.54945097     0.07390
Br562      Br  0.55038524  0.70013878  0.62928066    -0.03220
C563        C  0.83010652  0.58238998  0.56870181    -0.09860
C564        C  0.79019450  0.58334198  0.58876788     0.06340
C565        C  0.75875788  0.55560903  0.57199903    -0.03620
C566        C  0.76743314  0.52767634  0.53629292    -0.08070
C567        C  0.80791719  0.52386018  0.51829264     0.05460
C568        C  0.83910894  0.55278329  0.53349748    -0.03100
Br569      Br  0.89333766  0.55408017  0.50612768    -0.02790
H570        H  0.85405106  0.60492531  0.58005129     0.09370
H571        H  0.74237962  0.50716374  0.52419955     0.07390
Br572      Br  0.70430576  0.55070664  0.59915148    -0.03220
C573        C  0.60266778  0.55239378  0.72716329    -0.09860
C574        C  0.61031068  0.58134054  0.69121989     0.06340
C575        C  0.58511660  0.57761699  0.65188432    -0.03620
C576        C  0.54913973  0.55176437  0.65278178    -0.08070
C577        C  0.54015388  0.52482283  0.68973527     0.05460
C578        C  0.56894467  0.52328316  0.72610430    -0.03100
Br579      Br  0.56195170  0.48622053  0.77780529    -0.02790
H580        H  0.62251813  0.55301876  0.75695484     0.09370
H581        H  0.52823043  0.55195879  0.62382177     0.07390
Br582      Br  0.59789175  0.60478652  0.59510536    -0.03220
C583        C  0.83419822  0.39772077  0.58279007    -0.09860
C584        C  0.79258694  0.38406828  0.58914940     0.06340
C585        C  0.76108898  0.39962438  0.55955590    -0.03620
C586        C  0.77188273  0.42710833  0.52474561    -0.08070
C587        C  0.81241569  0.44341873  0.52051174     0.05460
C588        C  0.84414142  0.42771041  0.54903425    -0.03100
Br589      Br  0.90123606  0.44503894  0.54237838    -0.02790
H590        H  0.85904680  0.38534034  0.60418016     0.09370
H591        H  0.74723790  0.43881838  0.50311482     0.07390
Br592      Br  0.70172501  0.38968192  0.56565929    -0.03220
C593        C  0.53488150  0.22501814  0.55086869    -0.09860
C594        C  0.53236387  0.18503698  0.52794440     0.06340
C595        C  0.56346943  0.15305365  0.53488595    -0.03620
C596        C  0.59437029  0.16030221  0.56758059    -0.08070
C597        C  0.59550600  0.19959720  0.59204389     0.05460
C598        C  0.56634088  0.23277085  0.58233301    -0.03100
Br599      Br  0.56619257  0.28847425  0.61246612    -0.02790
H600        H  0.51141602  0.24994500  0.54503027     0.09370
H601        H  0.61746804  0.13517590  0.57405755     0.07390
Br602      Br  0.56177690  0.09684258  0.50617581    -0.03220
C603        C  0.59899974  0.39858188  0.66153451    -0.09860
C604        C  0.60078424  0.36967735  0.69832937     0.06340
C605        C  0.56650982  0.36849109  0.72846989    -0.03620
C606        C  0.53313534  0.39734334  0.72303284    -0.08070
C607        C  0.53212835  0.42780400  0.68769845     0.05460
C608        C  0.56492161  0.42696803  0.65556080    -0.03100
Br609      Br  0.56358940  0.45993692  0.60060962    -0.02790
H610        H  0.62410258  0.39886080  0.63695222     0.09370
H611        H  0.50772936  0.39621797  0.74722298     0.07390
Br612      Br  0.56097638  0.32644324  0.77601636    -0.03220
C613        C  0.41801944  0.16559209  0.59942682    -0.09860
C614        C  0.38441125  0.19144314  0.58539573     0.06340
C615        C  0.38393749  0.20707124  0.54088550    -0.03620
C616        C  0.41962726  0.20312693  0.51429140    -0.08070
C617        C  0.45405633  0.17732428  0.52772452     0.05460
C618        C  0.45159220  0.15692070  0.57091249    -0.03100
Br619      Br  0.49167971  0.11713886  0.59609329    -0.02790
H620        H  0.41852721  0.15209562  0.63328649     0.09370
H621        H  0.41988819  0.22214923  0.48398685     0.07390
Br622      Br  0.33465511  0.22997471  0.51259198    -0.03220
C623        C  0.22523864  0.42017484  0.58977737    -0.09860
C624        C  0.19274518  0.39284744  0.60396408     0.06340
C625        C  0.15530201  0.39165745  0.57870615    -0.03620
C626        C  0.15249015  0.41468795  0.53804765    -0.08070
C627        C  0.18639508  0.43906681  0.52184583     0.05460
C628        C  0.22288194  0.44241049  0.54880533    -0.03100
Br629      Br  0.27374843  0.46901878  0.52874255    -0.02790
H630        H  0.25444193  0.42075682  0.60853084     0.09370
H631        H  0.12475113  0.41097853  0.51721546     0.07390
Br632      Br  0.10957745  0.35414733  0.59385170    -0.03220
C633        C  0.40409644  0.38139749  0.66094821    -0.09860
C634        C  0.38197358  0.38246882  0.70210497     0.06340
C635        C  0.39456344  0.41300623  0.73570333    -0.03620
C636        C  0.42998181  0.43906306  0.72871406    -0.08070
C637        C  0.45330928  0.43587050  0.68855386     0.05460
C638        C  0.43929477  0.40746933  0.65408580    -0.03100
Br639      Br  0.46703895  0.40247477  0.59684414    -0.02790
H640        H  0.39499645  0.35891663  0.63425779     0.09370
H641        H  0.44032959  0.46083472  0.75551404     0.07390
Br642      Br  0.36503591  0.42167372  0.79161796    -0.03220
C643        C  0.94128254  0.91802329  0.78243293    -0.09860
C644        C  0.94982833  0.94119351  0.74256021     0.06340
C645        C  0.92852882  0.92987689  0.70252444    -0.03620
C646        C  0.89832363  0.89755539  0.70302334    -0.08070
C647        C  0.88824958  0.87497389  0.74286556     0.05460
C648        C  0.91081691  0.88498806  0.78295491    -0.03100
Br649      Br  0.90253281  0.85489439  0.83900844    -0.02790
H650        H  0.95765097  0.92645027  0.81344026     0.09370
H651        H  0.88217946  0.89065351  0.67149134     0.07390
Br652      Br  0.93975603  0.95607086  0.64512111    -0.03220
C653        C  0.92339241  0.02765614  0.77791405    -0.09860
C654        C  0.95344051  0.02245920  0.74361910     0.06340
C655        C  0.95359108  0.05235119  0.70732368    -0.03620
C656        C  0.92202510  0.08390313  0.70443353    -0.08070
C657        C  0.88996650  0.08661718  0.73691698     0.05460
C658        C  0.89161989  0.05868620  0.77478705    -0.03100
Br659      Br  0.84956285  0.05714250  0.82130843    -0.02790
H660        H  0.92304099  0.00535891  0.80624436     0.09370
H661        H  0.92208414  0.10593930  0.67587072     0.07390
Br662      Br  0.99373801  0.05136860  0.65906659    -0.03220
C663        C  0.04294332  0.05304939  0.77078503    -0.09860
C664        C  0.04822845  0.01565236  0.74351028     0.06340
C665        C  0.08190444  0.01460221  0.71235330    -0.03620
C666        C  0.11043132  0.04881434  0.71107858    -0.08070
C667        C  0.10569701  0.08552314  0.73891998     0.05460
C668        C  0.07059600  0.08835156  0.76759603    -0.03100
Br669      Br  0.05606376  0.14129481  0.79836338    -0.02790
H670        H  0.01711295  0.05502642  0.79437071     0.09370
H671        H  0.13635562  0.04699103  0.68750806     0.07390
Br672      Br  0.08912541  0.96996735  0.66707392    -0.03220
C673        C  0.16316495  0.56390360  0.56736176    -0.09860
C674        C  0.20195554  0.58542963  0.57166404     0.06340
C675        C  0.23138200  0.58043535  0.53565931    -0.03620
C676        C  0.22207118  0.55428664  0.49852912    -0.08070
C677        C  0.18547240  0.52993870  0.49646130     0.05460
C678        C  0.15476341  0.53640808  0.53008590    -0.03100
Br679      Br  0.10044029  0.51050061  0.52504328    -0.02790
H680        H  0.13934183  0.56819178  0.59304362     0.09370
H681        H  0.24551954  0.55022546  0.47240771     0.07390
Br682      Br  0.28690743  0.60433059  0.53307040    -0.03220
C683        C  0.39737347  0.74471469  0.55690797    -0.09860
C684        C  0.39012059  0.77559183  0.59181544     0.06340
C685        C  0.41248107  0.81539045  0.58991357    -0.03620
C686        C  0.44161453  0.82239775  0.55499122    -0.08070
C687        C  0.44962133  0.79068749  0.52131991     0.05460
C688        C  0.42677457  0.75146326  0.52271608    -0.03100
Br689      Br  0.43879960  0.70234000  0.48425802    -0.02790
H690        H  0.38144301  0.71360629  0.55696299     0.09370
H691        H  0.46003236  0.85203729  0.55552120     0.07390
Br692      Br  0.40707729  0.86086403  0.63450794    -0.03220
C693        C  0.42048180  0.59086016  0.72547287    -0.09860
C694        C  0.38972224  0.58795492  0.69169582     0.06340
C695        C  0.39480027  0.55647081  0.65704611    -0.03620
C696        C  0.43038024  0.52929586  0.65671685    -0.08070
C697        C  0.46078645  0.53173962  0.69135703     0.05460
C698        C  0.45512144  0.56328380  0.72601756    -0.03100
Br699      Br  0.49102064  0.57006787  0.77753190    -0.02790
H700        H  0.41729865  0.61470465  0.75252431     0.09370
H701        H  0.43405025  0.50573947  0.62952336     0.07390
Br702      Br  0.35290070  0.54645767  0.61181599    -0.03220
C703        C  0.09841303  0.89265627  0.78761750    -0.09860
C704        C  0.09505289  0.86144369  0.75288440     0.06340
C705        C  0.06083041  0.86387511  0.72266083    -0.03620
C706        C  0.03464669  0.90026407  0.72340491    -0.08070
C707        C  0.04075067  0.93406418  0.75503194     0.05460
C708        C  0.07131239  0.92850355  0.78919924    -0.03100
Br709      Br  0.07819895  0.96930308  0.83819774    -0.02790
H710        H  0.12353161  0.89049546  0.81221487     0.09370
H711        H  0.01158157  0.90348091  0.69680997     0.07390
Br712      Br  0.04803476  0.81896763  0.67925288    -0.03220
C713        C  0.03832079  0.71384970  0.90213923    -0.09860
C714        C  0.03628292  0.67380229  0.92471563     0.06340
C715        C  0.05665271  0.63745529  0.90481817    -0.03620
C716        C  0.08118861  0.64249764  0.86554826    -0.08070
C717        C  0.08547798  0.68340346  0.84492458     0.05460
C718        C  0.06186485  0.71874822  0.86256419    -0.03100
Br719      Br  0.06052416  0.77500446  0.83426237    -0.02790
H720        H  0.02224629  0.74196409  0.91596342     0.09370
H721        H  0.09866274  0.61484240  0.85255413     0.07390
Br722      Br  0.05235562  0.58023395  0.92961845    -0.03220
C723        C  0.90343543  0.72966316  0.88235924    -0.09860
C724        C  0.89232657  0.69447850  0.85395500     0.06340
C725        C  0.91071799  0.65324878  0.86287404    -0.03620
C726        C  0.93752009  0.64807543  0.90047008    -0.08070
C727        C  0.94594878  0.68295804  0.93024998     0.05460
C728        C  0.92959198  0.72440280  0.91975393    -0.03100
Br729      Br  0.94273868  0.77623569  0.95356307    -0.02790
H730        H  0.89117852  0.76197537  0.87598609     0.09370
H731        H  0.95095443  0.61631777  0.90721931     0.07390
Br732      Br  0.89934739  0.60209442  0.82724757    -0.03220
C733        C  0.71379673  0.95174128  0.89571299    -0.09860
C734        C  0.68296454  0.94077426  0.92770617     0.06340
C735        C  0.65728740  0.90415262  0.91924129    -0.03620
C736        C  0.66377498  0.87848624  0.88058325    -0.08070
C737        C  0.69627806  0.88796604  0.85050927     0.05460
C738        C  0.72089542  0.92535346  0.85770456    -0.03100
Br739      Br  0.76568707  0.94048524  0.81756650    -0.02790
H740        H  0.73432607  0.97920867  0.90190494     0.09370
H741        H  0.64477332  0.84966357  0.87525903     0.07390
Br742      Br  0.61263666  0.88789311  0.95908853    -0.03220
C743        C  0.70218473  0.07607536  0.93597494    -0.09860
C744        C  0.67694173  0.03863232  0.93253180     0.06340
C745        C  0.65423965  0.03254424  0.89156974    -0.03620
C746        C  0.66410654  0.05800514  0.85336944    -0.08070
C747        C  0.69225807  0.09308570  0.85723371     0.05460
C748        C  0.70676757  0.10461556  0.90053755    -0.03100
Br749      Br  0.72655424  0.16182777  0.91629164    -0.02790
H750        H  0.71778196  0.08510231  0.96699357     0.09370
H751        H  0.64900029  0.05118375  0.82122918     0.07390
Br752      Br  0.60640980  0.99511731  0.88724262    -0.03220
C753        C  0.92707803  0.30447008  0.90948723    -0.09860
C754        C  0.94957044  0.26688903  0.92131835     0.06340
C755        C  0.94823003  0.22980455  0.89290210    -0.03620
C756        C  0.92375900  0.23071853  0.85400580    -0.08070
C757        C  0.89977477  0.26755036  0.84337375     0.05460
C758        C  0.90246533  0.30522445  0.87047136    -0.03100
Br759      Br  0.86949507  0.35628128  0.85883915    -0.02790
H760        H  0.92738455  0.33270753  0.93173909     0.09370
H761        H  0.92100865  0.20133029  0.83359134     0.07390
Br762      Br  0.97373370  0.17501437  0.90793036    -0.03220
C763        C  0.06161447  0.22686788  0.92404614    -0.09860
C764        C  0.03880789  0.26515835  0.92915296     0.06340
C765        C  0.04447232  0.29958287  0.89847425    -0.03620
C766        C  0.07173587  0.29404423  0.86184839    -0.08070
C767        C  0.09473670  0.25517187  0.85649943     0.05460
C768        C  0.08936470  0.22124378  0.88885436    -0.03100
Br769      Br  0.11884142  0.16622488  0.89165833    -0.02790
H770        H  0.05813132  0.20089374  0.94847021     0.09370
H771        H  0.07622194  0.32091050  0.83871484     0.07390
Br772      Br  0.01959623  0.35583183  0.90773607    -0.03220
C773        C  0.33294222  0.03988304  0.90134305    -0.09860
C774        C  0.29949251  0.01269774  0.91334577     0.06340
C775        C  0.26107861  0.01663638  0.89001778    -0.03620
C776        C  0.25716772  0.04613064  0.85485277    -0.08070
C777        C  0.29026716  0.07351620  0.84274026     0.05460
C778        C  0.32870233  0.07013951  0.86614824    -0.03100
Br779      Br  0.37520844  0.10770575  0.85399103    -0.02790
H780        H  0.36224993  0.03781678  0.91968598     0.09370
H781        H  0.22712905  0.04897055  0.83797891     0.07390
Br782      Br  0.21058472  0.98754215  0.90767293    -0.03220
C783        C  0.26832981  0.90831570  0.93680775    -0.09860
C784        C  0.30447776  0.93334396  0.93140795     0.06340
C785        C  0.33383425  0.92029847  0.89850742    -0.03620
C786        C  0.32361896  0.88783859  0.86697355    -0.08070
C787        C  0.28425634  0.86734861  0.86758945     0.05460
C788        C  0.25729092  0.87641835  0.90488689    -0.03100
Br789      Br  0.20301852  0.85084409  0.91373457    -0.02790
H790        H  0.24595307  0.91712587  0.96280129     0.09370
H791        H  0.34617373  0.87995292  0.84083845     0.07390
Br792      Br  0.38805399  0.94664021  0.89467007    -0.03220
C793        C  0.38810894  0.80797109  0.38252350    -0.09860
C794        C  0.39043531  0.77112768  0.35386886     0.06340
C795        C  0.42520758  0.74337209  0.35717966    -0.03620
C796        C  0.45640264  0.75203407  0.38891439    -0.08070
C797        C  0.45445360  0.78836713  0.41840411     0.05460
C798        C  0.41974334  0.81675509  0.41471836    -0.03100
Br799      Br  0.41536942  0.86919871  0.45009859    -0.02790
H800        H  0.36174510  0.83003860  0.37969668     0.09370
H801        H  0.48262211  0.72976052  0.39037830     0.07390
Br802      Br  0.43340547  0.69478090  0.31666937    -0.03220
C803        C  0.23193731  0.53838502  0.35181708    -0.09860
C804        C  0.20082331  0.56776689  0.33767209     0.06340
C805        C  0.16173976  0.56689150  0.35993195    -0.03620
C806        C  0.15554656  0.53916461  0.39699111    -0.08070
C807        C  0.18744999  0.51159211  0.41296744     0.05460
C808        C  0.22571662  0.51054884  0.38883183    -0.03100
Br809      Br  0.27305811  0.47683173  0.40769770    -0.02790
H810        H  0.26222873  0.53869223  0.33539847     0.09370
H811        H  0.12647077  0.54149670  0.41567971     0.07390
Br812      Br  0.11758625  0.60715142  0.34607188    -0.03220
C813        C  0.41310402  0.58300897  0.17156496    -0.09860
C814        C  0.38872986  0.58532286  0.21123839     0.06340
C815        C  0.39876442  0.55628235  0.24690400    -0.03620
C816        C  0.43304150  0.52757196  0.24275900    -0.08070
C817        C  0.45770024  0.52616931  0.20335194     0.05460
C818        C  0.44688715  0.55411054  0.16741756    -0.03100
Br819      Br  0.47672343  0.55446292  0.11129105    -0.02790
H820        H  0.40635179  0.60440016  0.14339544     0.09370
H821        H  0.44098426  0.50682608  0.27097798     0.07390
Br822      Br  0.36657057  0.55261136  0.30158407    -0.03220
C823        C  0.25470274  0.92206268  0.08812317    -0.09860
C824        C  0.28627103  0.89161813  0.09753546     0.06340
C825        C  0.32373829  0.89319893  0.07229756    -0.03620
C826        C  0.32878651  0.92489930  0.03847727    -0.08070
C827        C  0.29720172  0.95572109  0.02959858     0.05460
C828        C  0.25971842  0.95368709  0.05477480    -0.03100
Br829      Br  0.21232633  0.99042064  0.04307472    -0.02790
H830        H  0.22538723  0.92079668  0.10646338     0.09370
H831        H  0.35742899  0.92547381  0.01893998     0.07390
Br832      Br  0.36756785  0.85111736  0.08020448    -0.03220
C833        C  0.05575360  0.72187788  0.01842038    -0.09860
C834        C  0.04067408  0.67955343  0.01114978     0.06340
C835        C  0.04855778  0.64785679  0.04463985    -0.03620
C836        C  0.07456867  0.65786856  0.08186970    -0.08070
C837        C  0.09072456  0.70022261  0.08852027     0.05460
C838        C  0.07819855  0.73297752  0.05749215    -0.03100
Br839      Br  0.08558359  0.79437658  0.06786212    -0.02790
H840        H  0.04761895  0.74739578  0.99474622     0.09370
H841        H  0.08209164  0.63228327  0.10568956     0.07390
Br842      Br  0.02391663  0.59105197  0.04230314    -0.03220
C843        C  0.82463586  0.55853137  0.34870220    -0.09860
C844        C  0.78484822  0.57844415  0.34944481     0.06340
C845        C  0.75759421  0.56865513  0.38592813    -0.03620
C846        C  0.77124882  0.54198853  0.42077920    -0.08070
C847        C  0.80893188  0.51919434  0.41776433     0.05460
C848        C  0.83624932  0.52824737  0.38176966    -0.03100
Br849      Br  0.88989037  0.50062821  0.37680704    -0.02790
H850        H  0.84650886  0.56554436  0.32174882     0.09370
H851        H  0.74985255  0.53533373  0.44808758     0.07390
Br852      Br  0.69931386  0.58412759  0.38954672    -0.03220
C853        C  0.57351673  0.81266382  0.35638085    -0.09860
C854        C  0.59420145  0.77200273  0.35670633     0.06340
C855        C  0.58445292  0.74305828  0.39289413    -0.03620
C856        C  0.55514072  0.75470969  0.42597613    -0.08070
C857        C  0.53265458  0.79370903  0.42353578     0.05460
C858        C  0.54268982  0.82320770  0.38862053    -0.03100
Br859      Br  0.51405656  0.87784457  0.38246945    -0.02790
H860        H  0.58022457  0.83604097  0.33002851     0.09370
H861        H  0.54665917  0.73093112  0.45136913     0.07390
Br862      Br  0.60539336  0.68494041  0.39937455    -0.03220
C863        C  0.54111588  0.54794405  0.25043561    -0.09860
C864        C  0.53715772  0.52365791  0.21004280     0.06340
C865        C  0.56914421  0.52747063  0.17737661    -0.03620
C866        C  0.60192770  0.55726604  0.18414843    -0.08070
C867        C  0.60458693  0.58369649  0.22339612     0.05460
C868        C  0.57433491  0.57720181  0.25758229    -0.03100
Br869      Br  0.57433453  0.60878915  0.31365679    -0.02790
H870        H  0.51739193  0.54497682  0.27638338     0.09370
H871        H  0.62512539  0.56047879  0.15767439     0.07390
Br872      Br  0.56922010  0.49539892  0.12145939    -0.03220
C873        C  0.95399777  0.71728767  0.04438161    -0.09860
C874        C  0.94874452  0.68002376  0.01684664     0.06340
C875        C  0.91867001  0.64890689  0.03002998    -0.03620
C876        C  0.89325328  0.65657455  0.06802977    -0.08070
C877        C  0.89654578  0.69540343  0.09331012     0.05460
C878        C  0.92819517  0.72532689  0.08186548    -0.03100
Br879      Br  0.93771215  0.77777073  0.11625898    -0.02790
H880        H  0.97688153  0.74163159  0.03561214     0.09370
H881        H  0.86942456  0.63293140  0.07655590     0.07390
Br882      Br  0.91073000  0.59531815  0.99738539    -0.03220
C883        C  0.73261103  0.88850890  0.05702029    -0.09860
C884        C  0.70560810  0.89018690  0.09451688     0.06340
C885        C  0.66974446  0.91719864  0.09147970    -0.03620
C886        C  0.66194062  0.94105869  0.05160884    -0.08070
C887        C  0.68907781  0.93862931  0.01399647     0.05460
C888        C  0.72465752  0.91120609  0.01734410    -0.03100
Br889      Br  0.76644999  0.90357762  0.97111100    -0.02790
H890        H  0.76046987  0.86846447  0.05775213     0.09370
H891        H  0.63423374  0.96135578  0.04980205     0.07390
Br892      Br  0.63086422  0.92418514  0.14041340    -0.03220
C893        C  0.59130702  0.16752045  0.37887451    -0.09860
C894        C  0.61009793  0.20899369  0.38172755     0.06340
C895        C  0.59192973  0.24073017  0.41048936    -0.03620
C896        C  0.55614116  0.23015256  0.43553682    -0.08070
C897        C  0.53734364  0.18878452  0.43164543     0.05460
C898        C  0.55514178  0.15760425  0.40253440    -0.03100
Br899      Br  0.53111371  0.10124023  0.39175208    -0.02790
H900        H  0.60375194  0.14262638  0.35647536     0.09370
H901        H  0.54201239  0.25482712  0.45703169     0.07390
Br902      Br  0.61367265  0.29874366  0.41706647    -0.03220
C903        C  0.84102889  0.40762418  0.41992229    -0.09860
C904        C  0.80750489  0.43697077  0.42474411     0.06340
C905        C  0.76687583  0.42304661  0.41240049    -0.03620
C906        C  0.76086939  0.38135169  0.39547178    -0.08070
C907        C  0.79448582  0.35310625  0.38688005     0.05460
C908        C  0.83509111  0.36624218  0.40034911    -0.03100
Br909      Br  0.88333306  0.32929300  0.39466440    -0.02790
H910        H  0.87201561  0.41713532  0.43108501     0.09370
H911        H  0.72917687  0.37192064  0.38702387     0.07390
Br912      Br  0.71659755  0.45704893  0.41786581    -0.03220
C913        C  0.56995722  0.35908522  0.17614523    -0.09860
C914        C  0.59147554  0.35599204  0.21764511     0.06340
C915        C  0.58434493  0.38952179  0.25043436    -0.03620
C916        C  0.55677171  0.42397598  0.24108016    -0.08070
C917        C  0.53341344  0.42523893  0.20092849     0.05460
C918        C  0.54114507  0.39263946  0.16777973    -0.03100
Br919      Br  0.51501495  0.39263066  0.10918744    -0.02790
H920        H  0.57529015  0.33506256  0.14972687     0.09370
H921        H  0.55133186  0.44848148  0.26698471     0.07390
Br922      Br  0.60783639  0.39036059  0.31044641    -0.03220
C923        C  0.64524923  0.06253695  0.02891639    -0.09860
C924        C  0.67806136  0.03386071  0.01754962     0.06340
C925        C  0.71727877  0.03973680  0.03858654    -0.03620
C926        C  0.72338662  0.07453365  0.06808623    -0.08070
C927        C  0.69199629  0.10584210  0.07667059     0.05460
C928        C  0.65180594  0.09850220  0.05784559    -0.03100
Br929      Br  0.60526846  0.13718234  0.06685965    -0.02790
H930        H  0.61530852  0.05908273  0.01199878     0.09370
H931        H  0.75449201  0.07838686  0.08183515     0.07390
Br932      Br  0.76728441  0.01029756  0.01937747    -0.03220
C933        C  0.90468821  0.28911069  0.07060424    -0.09860
C934        C  0.87765269  0.25283105  0.07002424     0.06340
C935        C  0.88258605  0.22073026  0.03609620    -0.03620
C936        C  0.91422475  0.22520101  0.00433238    -0.08070
C937        C  0.94135804  0.26115448  0.00500055     0.05460
C938        C  0.93599043  0.29378494  0.03807611    -0.03100
Br939      Br  0.96719988  0.34715607  0.03767956    -0.02790
H940        H  0.90110201  0.31442786  0.09607013     0.09370
H941        H  0.91694796  0.20063674  0.97811056     0.07390
Br942      Br  0.84555267  0.17189942  0.02799836    -0.03220
C943        C  0.22475749  0.38705001  0.44771584    -0.09860
C944        C  0.19048558  0.41508668  0.44089768     0.06340
C945        C  0.15953714  0.40279381  0.40918454    -0.03620
C946        C  0.16497726  0.36477700  0.38293192    -0.08070
C947        C  0.20049711  0.33819182  0.38863812     0.05460
C948        C  0.22986754  0.34912283  0.42232138    -0.03100
Br949      Br  0.27749132  0.31301395  0.43565083    -0.02790
H950        H  0.24803189  0.39457668  0.47317501     0.09370
H951        H  0.14212093  0.35674231  0.35705442     0.07390
Br952      Br  0.10852816  0.43502526  0.40231962    -0.03220
C953        C  0.45326527  0.22656174  0.40455110    -0.09860
C954        C  0.45949975  0.18553782  0.42444777     0.06340
C955        C  0.42947474  0.15267466  0.41750426    -0.03620
C956        C  0.39495515  0.16085791  0.38953665    -0.08070
C957        C  0.38867935  0.20201882  0.36941106     0.05460
C958        C  0.41786397  0.23554170  0.37858189    -0.03100
Br959      Br  0.41249682  0.29446726  0.35742166    -0.02790
H960        H  0.47526231  0.25267524  0.41102043     0.09370
H961        H  0.37271982  0.13478551  0.38372872     0.07390
Br962      Br  0.43365168  0.09653581  0.44555162    -0.03220
C963        C  0.41316166  0.37632567  0.24101055    -0.09860
C964        C  0.39227699  0.36473985  0.20083165     0.06340
C965        C  0.40054901  0.38892636  0.16124876    -0.03620
C966        C  0.43120059  0.42187206  0.16207755    -0.08070
C967        C  0.45491035  0.43007525  0.20139658     0.05460
C968        C  0.44395301  0.40839394  0.24165800    -0.03100
Br969      Br  0.46971082  0.42073024  0.29909318    -0.02790
H970        H  0.40637097  0.35937427  0.27223514     0.09370
H971        H  0.43810909  0.43946631  0.13129060     0.07390
Br972      Br  0.37078547  0.37894141  0.10567655    -0.03220
C973        C  0.07443866  0.22396367  0.06888620    -0.09860
C974        C  0.10556871  0.25610669  0.07174350     0.06340
C975        C  0.10126443  0.29425892  0.04563107    -0.03620
C976        C  0.06630657  0.29975454  0.01816935    -0.08070
C977        C  0.03643490  0.26667511  0.01299497     0.05460
C978        C  0.04055962  0.22838467  0.03911824    -0.03100
Br979      Br  0.00502180  0.17856273  0.03188959    -0.02790
H980        H  0.07720360  0.19454173  0.08876421     0.09370
H981        H  0.06468213  0.32838318  0.99687792     0.07390
Br982      Br  0.14458100  0.33717790  0.03971444    -0.03220
C983        C  0.27043499  0.06462982  0.99637578    -0.09860
C984        C  0.30306735  0.03653702  0.00944798     0.06340
C985        C  0.33362596  0.05251036  0.03980064    -0.03620
C986        C  0.32872643  0.09370078  0.05994264    -0.08070
C987        C  0.29367078  0.11979527  0.05024396     0.05460
C988        C  0.26573266  0.10590155  0.01602982    -0.03100
Br989      Br  0.21975404  0.14118298  0.99555951    -0.02790
H990        H  0.24677408  0.05357231  0.97284512     0.09370
H991        H  0.35096376  0.10395722  0.08561247     0.07390
Br992      Br  0.38231808  0.01925414  0.05560299    -0.03220
C993        C  0.07195512  0.94396275  0.26954542    -0.09860
C994        C  0.04373744  0.95080448  0.23393663     0.06340
C995        C  0.04688361  0.92394690  0.19504078    -0.03620
C996        C  0.07681573  0.89014864  0.19341717    -0.08070
C997        C  0.10460450  0.88282006  0.22978557     0.05460
C998        C  0.10185572  0.91080384  0.26808551    -0.03100
Br999      Br  0.13962783  0.90903588  0.31878587    -0.02790
H1000       H  0.07120235  0.96519634  0.29890073     0.09370
H1001       H  0.07863849  0.86984220  0.16332435     0.07390
Br1002     Br  0.01386166  0.93419172  0.14188325    -0.03220
C1003       C  0.91936593  0.94821067  0.19635580    -0.09860
C1004       C  0.94808172  0.94894585  0.23264869     0.06340
C1005       C  0.94781984  0.91373089  0.26327162    -0.03620
C1006       C  0.91876676  0.87981729  0.25768510    -0.08070
C1007       C  0.88920808  0.87979892  0.22214077     0.05460
C1008       C  0.89035749  0.91432563  0.19073099    -0.03100
Br1009     Br  0.85086163  0.91976126  0.14191368    -0.02790
H1010       H  0.91876492  0.97501403  0.17261559     0.09370
H1011       H  0.91848654  0.85377489  0.28233511     0.07390
Br1012     Br  0.98286989  0.91163369  0.31604595    -0.03220
C1013       C  0.90155849  0.08127252  0.28039496    -0.09860
C1014       C  0.90139458  0.10889817  0.24278930     0.06340
C1015       C  0.92648455  0.09824671  0.20503581    -0.03620
C1016       C  0.94996869  0.05976578  0.20482350    -0.08070
C1017       C  0.94952658  0.03142778  0.24202151     0.05460
C1018       C  0.92485056  0.04254411  0.28007024    -0.03100
Br1019     Br  0.91995337  0.00561777  0.33185657    -0.02790
H1020       H  0.88157573  0.08854294  0.30909096     0.09370
H1021       H  0.96783335  0.05133266  0.17490436     0.07390
Br1022     Br  0.92957475  0.13508445  0.15270143    -0.03220
C1023       C  0.05331081  0.04719383  0.19244910    -0.09860
C1024       C  0.03961835  0.03296604  0.23479662     0.06340
C1025       C  0.04927607  0.05828834  0.27346956    -0.03620
C1026       C  0.07457370  0.09553122  0.26941514    -0.08070
C1027       C  0.09004909  0.10888477  0.22700668     0.05460
C1028       C  0.07713747  0.08506106  0.18791571    -0.03100
Br1029     Br  0.08950300  0.10164751  0.12660449    -0.02790
H1030       H  0.04512050  0.02863558  0.16237857     0.09370
H1031       H  0.08337303  0.11310843  0.29989987     0.07390
Br1032     Br  0.03038461  0.04255338  0.33272195    -0.03220
loop_ 
_geom_bond_atom_site_label_1 
_geom_bond_atom_site_label_2 
_geom_bond_distance 
_geom_bond_site_symmetry_2 
_ccdc_geom_bond_type 
C1            C2   1.374   1_455  D
C1          C994   1.497       .  S
C1         C1024   1.498   1_565  S
C2         C1004   1.503       .  S
C2         C1017   1.498   1_565  S
Zr3           O4   2.445       .  S
Zr3           O5   2.442       .  S
Zr3           O6   2.418       .  S
Zr3           O9   2.420       .  S
Zr3          O11   2.379       .  S
Zr3          O12   2.378       .  S
Zr3          O13   2.409       .  S
Zr3          O14   2.392       .  S
O4           H60   0.990       .  S
O4           H68   0.991       .  S
O5           C25   1.283       .  A
O6           C27   1.280       .  A
O7          Zr17   2.460       .  S
O7           C26   1.289       .  A
O8          Zr16   2.452       .  S
O8           C27   1.287       .  A
O9           C26   1.283       .  A
O10         Zr18   2.403       .  S
O10          C25   1.278       .  A
O11         Zr16   2.410       .  S
O11         Zr18   2.385       .  S
O12         Zr17   2.400       .  S
O12         Zr18   2.384       .  S
O12          H47   0.966       .  S
O13         Zr16   2.408       .  S
O13         Zr33   2.378       .  S
O13          H50   0.964       .  S
O14         Zr17   2.384       .  S
O14         Zr33   2.380       .  S
Zr15         O40   2.454       .  S
Zr15         O34   2.437       .  S
Zr15         O42   2.421       .  S
Zr15         O30   2.418       .  S
Zr15         O21   2.393       .  S
Zr15         O22   2.400       .  S
Zr15         O23   2.373       .  S
Zr15         O24   2.382       .  S
Zr16         O35   2.436       .  S
Zr16         O28   2.435       .  S
Zr16         O29   2.467       .  S
Zr16         O22   2.400       .  S
Zr16         O23   2.390       .  S
Zr17         O19   2.435       .  S
Zr17         O41   2.439       .  S
Zr17         O43   2.446       .  S
Zr17         O21   2.393       .  S
Zr17         O24   2.396       .  S
Zr18         O44   2.436       .  S
Zr18         O45   2.435       .  S
Zr18         O20   2.437       .  S
Zr18         O21   2.386       .  S
Zr18         O22   2.387       .  S
O19          H56   0.990       .  S
O20          H51   0.990       .  S
O20          H65   0.990       .  S
O22          H48   0.965       .  S
O23         Zr33   2.378       .  S
O24         Zr33   2.378       .  S
O24          H49   0.966       .  S
C25         C957   1.486       .  S
C26         C964   1.487       .  S
C27         C947   1.472       .  S
O28          H64   0.990       .  S
O29          C31   1.292       .  A
O30          C31   1.280       .  A
C31        C1027   1.499       .  S
O32         Zr33   2.442       .  S
O32          H61   0.990       .  S
Zr33         O36   2.438       .  S
Zr33         O37   2.441       .  S
Zr33         O38   2.401       .  S
O34          C39   1.286       .  A
O35          H52   0.990       .  S
O35          H67   0.990       .  S
O36          H53   0.990       .  S
O37          H57   0.989       .  S
O37          H66   0.989       .  S
O38          C39   1.278       .  A
C39         C974   1.476       .  S
O40          H59   0.990       .  S
O40          H63   0.990       .  S
O41          H55   0.990       .  S
O41          H62   0.990       .  S
O42          C46   1.282       .  A
O43          C46   1.288       .  A
O44          H54   0.990       .  S
O45          H58   0.990       .  S
C46         C987   1.482       .  S
Zr69         O70   2.442       .  S
Zr69         O71   2.425       .  S
Zr69         O72   2.421       .  S
Zr69         O75   2.407       .  S
Zr69         O77   2.378       .  S
Zr69         O78   2.374       .  S
Zr69         O79   2.403       .  S
Zr69         O80   2.394       .  S
O70         H126   0.990       .  S
O70         H134   0.990       .  S
O71          C91   1.280       .  A
O72          C93   1.283       .  A
O73         Zr83   2.452       .  S
O73          C92   1.288       .  A
O74         Zr82   2.459       .  S
O74          C93   1.287       .  A
O75          C92   1.279       .  A
O76         Zr84   2.395       .  S
O76          C91   1.276       .  A
O77         Zr82   2.413       .  S
O77         Zr84   2.388       .  S
O78         Zr83   2.393       .  S
O78         Zr84   2.378       .  S
O78         H113   0.966       .  S
O79         Zr82   2.412       .  S
O79         Zr99   2.368       .  S
O79         H116   0.963       .  S
O80         Zr83   2.384       .  S
O80         Zr99   2.382       .  S
Zr81        O106   2.443       .  S
Zr81        O100   2.444       .  S
Zr81        O108   2.420       .  S
Zr81         O96   2.429       .  S
Zr81         O87   2.397       .  S
Zr81         O88   2.398       .  S
Zr81         O89   2.373       .  S
Zr81         O90   2.387       .  S
Zr82        O101   2.435       .  S
Zr82         O94   2.436       .  S
Zr82         O95   2.476       .  S
Zr82         O88   2.396       .  S
Zr82         O89   2.391       .  S
Zr83         O85   2.435       .  S
Zr83        O107   2.438       .  S
Zr83        O109   2.434       .  S
Zr83         O87   2.393       .  S
Zr83         O90   2.392       .  S
Zr84        O110   2.436       .  S
Zr84        O111   2.436       .  S
Zr84         O86   2.437       .  S
Zr84         O87   2.384       .  S
Zr84         O88   2.375       .  S
O85         H122   0.990       .  S
O86         H117   0.990       .  S
O86         H131   0.990       .  S
O88         H114   0.964       .  S
O89         Zr99   2.382       .  S
O90         Zr99   2.367       .  S
O90         H115   0.966       .  S
C91         C934   1.472       .  S
C92        C1014   1.473       .  S
C93         C927   1.497       .  S
O94         H130   0.990       .  S
O95          C97   1.295       .  A
O96          C97   1.282       .  A
C97         C914   1.506       .  S
O98         Zr99   2.440       .  S
O98         H127   0.990       .  S
Zr99        O102   2.438       .  S
Zr99        O103   2.440       .  S
Zr99        O104   2.394       .  S
O100        C105   1.286       .  A
O101        H118   0.990       .  S
O101        H133   0.990       .  S
O102        H119   0.990       .  S
O103        H123   0.990       .  S
O103        H132   0.989       .  S
O104        C105   1.279       .  A
C105        C894   1.485       .  S
O106        H125   0.989       .  S
O106        H129   0.990       .  S
O107        H121   0.990       .  S
O107        H128   0.990       .  S
O108        C112   1.284       .  A
O109        C112   1.283       .  A
O110        H120   0.990       .  S
O111        H124   0.990       .  S
C112        C907   1.484       .  S
Zr135       O136   2.434       .  S
Zr135       O137   2.470       .  S
Zr135       O138   2.428       .  S
Zr135       O141   2.400       .  S
Zr135       O143   2.375       .  S
Zr135       O144   2.379       .  S
Zr135       O145   2.401       .  S
Zr135       O146   2.397       .  S
O136        H192   0.983       .  S
O136        H200   0.990       .  S
O137        C157   1.292       .  A
O138        C159   1.283       .  A
O139       Zr149   2.445       .  S
O139        C158   1.289       .  A
O140       Zr148   2.488       .  S
O140        C159   1.297       .  A
O141        C158   1.278       .  A
O142       Zr150   2.428       .  S
O142        C157   1.284       .  A
O143       Zr148   2.395       .  S
O143       Zr150   2.381       .  S
O144       Zr149   2.390       .  S
O144       Zr150   2.368       .  S
O144        H179   0.966       .  S
O145       Zr148   2.388       .  S
O145       Zr165   2.392       .  S
O145        H182   0.965       .  S
O146       Zr149   2.381       .  S
O146       Zr165   2.390       .  S
Zr147       O172   2.448       .  S
Zr147       O166   2.457       .  S
Zr147       O174   2.441       .  S
Zr147       O162   2.423       .  S
Zr147       O153   2.402       .  S
Zr147       O154   2.411       .  S
Zr147       O155   2.382       .  S
Zr147       O156   2.373       .  S
Zr148       O167   2.434       .  S
Zr148       O160   2.435       .  S
Zr148       O161   2.461       .  S
Zr148       O154   2.407       .  S
Zr148       O155   2.407       .  S
Zr149       O151   2.435       .  S
Zr149       O173   2.438       .  S
Zr149       O175   2.445       .  S
Zr149       O153   2.388       .  S
Zr149       O156   2.393       .  S
Zr150       O176   2.435       .  S
Zr150       O177   2.435       .  S
Zr150       O152   2.436       .  S
Zr150       O153   2.398       .  S
Zr150       O154   2.388       .  S
O151        H188   0.990       .  S
O152        H183   0.990       .  S
O152        H197   0.990       .  S
O154        H180   0.965       .  S
O155       Zr165   2.377       .  S
O156       Zr165   2.377       .  S
O156        H181   0.966       .  S
C157        C867   1.506       .  S
C158        C844   1.487       .  S
C159        C854   1.511       .  S
O160        H196   0.990       .  S
O161        C163   1.289       .  A
O162        C163   1.286       .  A
C163        C884   1.499       .  S
O164       Zr165   2.439       .  S
O164        H193   0.990       .  S
Zr165       O168   2.437       .  S
Zr165       O169   2.439       .  S
Zr165       O170   2.423       .  S
O166        C171   1.288       .  A
O167        H184   0.990       .  S
O167        H199   0.990       .  S
O168        H185   0.990       .  S
O169        H189   0.990       .  S
O169        H198   0.990       .  S
O170        C171   1.282       .  A
C171       C1007   1.495       .  S
O172        H191   0.990       .  S
O172        H195   0.990       .  S
O173        H187   0.990       .  S
O173        H194   0.990       .  S
O174        C178   1.286       .  A
O175        C178   1.287       .  A
O176        H186   0.990       .  S
O177        H190   0.990       .  S
C178        C877   1.487       .  S
Zr201       O202   2.441       .  S
Zr201       O203   2.460       .  S
Zr201       O204   2.434       .  S
Zr201       O207   2.425       .  S
Zr201       O209   2.379       .  S
Zr201       O210   2.378       .  S
Zr201       O211   2.412       .  S
Zr201       O212   2.401       .  S
O202        H258   0.989       .  S
O202        H266   0.990       .  S
O203        C223   1.289       .  A
O204        C225   1.283       .  A
O205       Zr215   2.450       .  S
O205        C224   1.287       .  A
O206       Zr214   2.466       .  S
O206        C225   1.291       .  A
O207        C224   1.283       .  A
O208       Zr216   2.420       .  S
O208        C223   1.281       .  A
O209       Zr214   2.399       .  S
O209       Zr216   2.380       .  S
O210       Zr215   2.396       .  S
O210       Zr216   2.377       .  S
O210        H245   0.966       .  S
O211       Zr214   2.401       .  S
O211       Zr231   2.397       .  S
O211        H248   0.965       .  S
O212       Zr215   2.385       .  S
O212       Zr231   2.396       .  S
Zr213       O238   2.442       .  S
Zr213       O232   2.460       .  S
Zr213       O240   2.449       .  S
Zr213       O228   2.454       .  S
Zr213       O219   2.402       .  S
Zr213       O220   2.416       .  S
Zr213       O221   2.383       .  S
Zr213       O222   2.384       .  S
Zr214       O233   2.435       .  S
Zr214       O226   2.434       .  S
Zr214       O227   2.452       .  S
Zr214       O220   2.408       .  S
Zr214       O221   2.407       .  S
Zr215       O217   2.435       .  S
Zr215       O239   2.439       .  S
Zr215       O241   2.431       .  S
Zr215       O219   2.395       .  S
Zr215       O222   2.403       .  S
Zr216       O242   2.437       .  S
Zr216       O243   2.437       .  S
Zr216       O218   2.437       .  S
Zr216       O219   2.387       .  S
Zr216       O220   2.391       .  S
O217        H254   0.990       .  S
O218        H249   0.990       .  S
O218        H263   0.990       .  S
O220        H246   0.965       .  S
O221       Zr231   2.378       .  S
O222       Zr231   2.381       .  S
O222        H247   0.966       .  S
C223        C997   1.497       .  S
C224        C824   1.484       .  S
C225        C837   1.504       .  S
O226        H262   0.990       .  S
O227        C229   1.288       .  A
O228        C229   1.288       .  A
C229        C804   1.493       .  S
O230       Zr231   2.440       .  S
O230        H259   0.990       .  S
Zr231       O234   2.437       .  S
Zr231       O235   2.440       .  S
Zr231       O236   2.427       .  S
O232        C237   1.287       .  A
O233        H250   0.990       .  S
O233        H265   0.990       .  S
O234        H251   0.990       .  S
O235        H255   0.990       .  S
O235        H264   0.990       .  S
O236        C237   1.283       .  A
C237        C814   1.504       .  S
O238        H257   0.990       .  S
O238        H261   0.990       .  S
O239        H253   0.990       .  S
O239        H260   0.990       .  S
O240        C244   1.288       .  A
O241        C244   1.284       .  A
O242        H252   0.990       .  S
O243        H256   0.990       .  S
C244        C794   1.479       .  S
C267        C268   1.368       .  D
C267        C774   1.488   1_565  S
C267        C784   1.491       .  S
C268        C827   1.498   1_556  S
C268        C984   1.501   1_566  S
C269        C270   1.355   1_455  D
C269        C764   1.476       .  S
C269        C977   1.486   1_556  S
C270        C754   1.478       .  S
C270        C937   1.477   1_556  S
C271        C272   1.377   1_545  D
C271        C744   1.513       .  S
C271        C924   1.495   1_556  S
C272        C734   1.495       .  S
C272        C887   1.511   1_556  S
C273        C274   1.373   1_655  D
C273        C727   1.500       .  S
C273        C874   1.508   1_556  S
C274        C714   1.509       .  S
C274        C834   1.501   1_556  S
Zr275       O276   2.443       .  S
Zr275       O277   2.451       .  S
Zr275       O278   2.410       .  S
Zr275       O281   2.384       .  S
Zr275       O283   2.370       .  S
Zr275       O284   2.383       .  S
Zr275       O285   2.394       .  S
Zr275       O286   2.398       .  S
O276        H332   0.989       .  S
O276        H340   0.990       .  S
O277        C297   1.287       .  A
O278        C299   1.281       .  A
O279       Zr289   2.483       .  S
O279        C298   1.295       .  A
O280       Zr288   2.478       .  S
O280        C299   1.292       .  A
O281        C298   1.274       .  A
O282       Zr290   2.416       .  S
O282        C297   1.282       .  A
O283       Zr288   2.395       .  S
O283       Zr290   2.380       .  S
O284       Zr289   2.400       .  S
O284       Zr290   2.370       .  S
O284        H319   0.966       .  S
O285       Zr288   2.388       .  S
O285       Zr305   2.388       .  S
O285        H322   0.965       .  S
O286       Zr289   2.395       .  S
O286       Zr305   2.388       .  S
Zr287       O312   2.445       .  S
Zr287       O306   2.437       .  S
Zr287       O314   2.397       .  S
Zr287       O302   2.416       .  S
Zr287       O293   2.398       .  S
Zr287       O294   2.397       .  S
Zr287       O295   2.378       .  S
Zr287       O296   2.380       .  S
Zr288       O307   2.435       .  S
Zr288       O300   2.435       .  S
Zr288       O301   2.455       .  S
Zr288       O294   2.403       .  S
Zr288       O295   2.397       .  S
Zr289       O291   2.435       .  S
Zr289       O313   2.436       .  S
Zr289       O315   2.496       .  S
Zr289       O293   2.394       .  S
Zr289       O296   2.389       .  S
Zr290       O316   2.435       .  S
Zr290       O317   2.436       .  S
Zr290       O292   2.436       .  S
Zr290       O293   2.394       .  S
Zr290       O294   2.387       .  S
O291        H328   0.990       .  S
O292        H323   0.990       .  S
O292        H337   0.990       .  S
O294        H320   0.965       .  S
O295       Zr305   2.380       .  S
O296       Zr305   2.374       .  S
O296        H321   0.966       .  S
C297        C694   1.489       .  S
C298        C674   1.497       .  S
C299        C684   1.507       .  S
O300        H336   0.990       .  S
O301        C303   1.291       .  A
O302        C303   1.280       .  A
C303        C787   1.495       .  S
O304       Zr305   2.441       .  S
O304        H333   0.990       .  S
Zr305       O308   2.438       .  S
Zr305       O309   2.436       .  S
Zr305       O310   2.416       .  S
O306        C311   1.285       .  A
O307        H324   0.990       .  S
O307        H339   0.990       .  S
O308        H325   0.990       .  S
O309        H329   0.990       .  S
O309        H338   0.990       .  S
O310        C311   1.281       .  A
C311        C704   1.478       .  S
O312        H331   0.990       .  S
O312        H335   0.990       .  S
O313        H327   0.990       .  S
O313        H334   0.990       .  S
O314        C318   1.278       .  A
O315        C318   1.297       .  A
O316        H326   0.990       .  S
O317        H330   0.990       .  S
C318        C717   1.493       .  S
C341        C342   1.369   1_455  D
C341        C664   1.497   1_565  S
C341        C707   1.498       .  S
C342        C644   1.491       .  S
C342        C654   1.494   1_565  S
Zr343       O344   2.439       .  S
Zr343       O345   2.431       .  S
Zr343       O346   2.418       .  S
Zr343       O349   2.433       .  S
Zr343       O351   2.378       .  S
Zr343       O352   2.379       .  S
Zr343       O353   2.405       .  S
Zr343       O354   2.395       .  S
O344        H400   0.990       .  S
O344        H408   0.991       .  S
O345        C365   1.284       .  A
O346        C367   1.281       .  A
O347       Zr357   2.392       .  S
O347        C366   1.279       .  A
O348       Zr356   2.437       .  S
O348        C367   1.284       .  A
O349        C366   1.285       .  A
O350       Zr358   2.432       .  S
O350        C365   1.282       .  A
O351       Zr356   2.405       .  S
O351       Zr358   2.376       .  S
O352       Zr357   2.399       .  S
O352       Zr358   2.374       .  S
O352        H387   0.966       .  S
O353       Zr356   2.409       .  S
O353       Zr373   2.391       .  S
O353        H390   0.966       .  S
O354       Zr357   2.395       .  S
O354       Zr373   2.386       .  S
Zr355       O380   2.443       .  S
Zr355       O374   2.440       .  S
Zr355       O382   2.394       .  S
Zr355       O370   2.356       .  S
Zr355       O361   2.384       .  S
Zr355       O362   2.398       .  S
Zr355       O363   2.369       .  S
Zr355       O364   2.360       .  S
Zr356       O375   2.434       .  S
Zr356       O368   2.435       .  S
Zr356       O369   2.458       .  S
Zr356       O362   2.393       .  S
Zr356       O363   2.384       .  S
Zr357       O359   2.435       .  S
Zr357       O381   2.438       .  S
Zr357       O383   2.440       .  S
Zr357       O361   2.375       .  S
Zr357       O364   2.377       .  S
Zr358       O384   2.436       .  S
Zr358       O385   2.436       .  S
Zr358       O360   2.436       .  S
Zr358       O361   2.398       .  S
Zr358       O362   2.397       .  S
O359        H396   0.990       .  S
O360        H391   0.990       .  S
O360        H405   0.990       .  S
O362        H388   0.966       .  S
O363       Zr373   2.371       .  S
O364       Zr373   2.381       .  S
O364        H389   0.966       .  S
C365        C634   1.493       .  S
C366        C614   1.471       .  S
C367        C624   1.473       .  S
O368        H404   0.990       .  S
O369        C371   1.290       .  A
O370        C371   1.266       .  A
C371        C767   1.477       .  S
O372       Zr373   2.440       .  S
O372        H401   0.990       .  S
Zr373       O376   2.437       .  S
Zr373       O377   2.440       .  S
Zr373       O378   2.418       .  S
O374        C379   1.285       .  A
O375        H392   0.990       .  S
O375        H407   0.989       .  S
O376        H393   0.990       .  S
O377        H397   0.990       .  S
O377        H406   0.990       .  S
O378        C379   1.282       .  A
C379        C667   1.475       .  S
O380        H399   0.990       .  S
O380        H403   0.990       .  S
O381        H395   0.990       .  S
O381        H402   0.990       .  S
O382        C386   1.279       .  A
O383        C386   1.284       .  A
O384        H394   0.990       .  S
O385        H398   0.990       .  S
C386        C777   1.473       .  S
Zr409       O410   2.444       .  S
Zr409       O411   2.419       .  S
Zr409       O412   2.434       .  S
Zr409       O415   2.400       .  S
Zr409       O417   2.372       .  S
Zr409       O418   2.372       .  S
Zr409       O419   2.404       .  S
Zr409       O420   2.402       .  S
O410        H466   0.989       .  S
O410        H474   0.989       .  S
O411        C431   1.278       .  A
O412        C433   1.285       .  A
O413       Zr423   2.414       .  S
O413        C432   1.279       .  A
O414       Zr422   2.434       .  S
O414        C433   1.282       .  A
O415        C432   1.278       .  A
O416       Zr424   2.421       .  S
O416        C431   1.281       .  A
O417       Zr422   2.407       .  S
O417       Zr424   2.384       .  S
O418       Zr423   2.393       .  S
O418       Zr424   2.369       .  S
O418        H453   0.966       .  S
O419       Zr422   2.410       .  S
O419       Zr439   2.384       .  S
O419        H456   0.964       .  S
O420       Zr423   2.391       .  S
O420       Zr439   2.395       .  S
Zr421       O446   2.450       .  S
Zr421       O440   2.439       .  S
Zr421       O448   2.381       .  S
Zr421       O436   2.382       .  S
Zr421       O427   2.390       .  S
Zr421       O428   2.394       .  S
Zr421       O429   2.367       .  S
Zr421       O430   2.372       .  S
Zr422       O441   2.436       .  S
Zr422       O434   2.435       .  S
Zr422       O435   2.445       .  S
Zr422       O428   2.394       .  S
Zr422       O429   2.387       .  S
Zr423       O425   2.435       .  S
Zr423       O447   2.437       .  S
Zr423       O449   2.416       .  S
Zr423       O427   2.390       .  S
Zr423       O430   2.386       .  S
Zr424       O450   2.436       .  S
Zr424       O451   2.435       .  S
Zr424       O426   2.436       .  S
Zr424       O427   2.394       .  S
Zr424       O428   2.391       .  S
O425        H462   0.990       .  S
O426        H457   0.990       .  S
O426        H471   0.990       .  S
O428        H454   0.966       .  S
O429       Zr439   2.376       .  S
O430       Zr439   2.374       .  S
O430        H455   0.966       .  S
C431        C657   1.482       .  S
C432        C757   1.455       .  S
C433        C747   1.477       .  S
O434        H470   0.990       .  S
O435        C437   1.287       .  A
O436        C437   1.274       .  A
C437        C597   1.459       .  S
O438       Zr439   2.441       .  S
O438        H467   0.990       .  S
Zr439       O442   2.437       .  S
Zr439       O443   2.441       .  S
Zr439       O444   2.427       .  S
O440        C445   1.286       .  A
O441        H458   0.990       .  S
O441        H473   0.990       .  S
O442        H459   0.990       .  S
O443        H463   0.990       .  S
O443        H472   0.989       .  S
O444        C445   1.283       .  A
C445        C604   1.488       .  S
O446        H465   0.990       .  S
O446        H469   0.990       .  S
O447        H461   0.990       .  S
O447        H468   0.990       .  S
O448        C452   1.273       .  A
O449        C452   1.281       .  A
O450        H460   0.990       .  S
O451        H464   0.990       .  S
C452        C584   1.469       .  S
Zr475       O476   2.441       .  S
Zr475       O477   2.442       .  S
Zr475       O478   2.423       .  S
Zr475       O481   2.417       .  S
Zr475       O483   2.376       .  S
Zr475       O484   2.380       .  S
Zr475       O485   2.405       .  S
Zr475       O486   2.404       .  S
O476        H532   0.991       .  S
O476        H540   0.990       .  S
O477        C497   1.283       .  A
O478        C499   1.284       .  A
O479       Zr489   2.437       .  S
O479        C498   1.285       .  A
O480       Zr488   2.461       .  S
O480        C499   1.288       .  A
O481        C498   1.282       .  A
O482       Zr490   2.398       .  S
O482        C497   1.279       .  A
O483       Zr488   2.393       .  S
O483       Zr490   2.378       .  S
O484       Zr489   2.395       .  S
O484       Zr490   2.371       .  S
O484        H519   0.966       .  S
O485       Zr488   2.398       .  S
O485       Zr505   2.396       .  S
O485        H522   0.966       .  S
O486       Zr489   2.394       .  S
O486       Zr505   2.400       .  S
Zr487       O512   2.449       .  S
Zr487       O506   2.433       .  S
Zr487       O514   2.435       .  S
Zr487       O502   2.408       .  S
Zr487       O493   2.391       .  S
Zr487       O494   2.402       .  S
Zr487       O495   2.383       .  S
Zr487       O496   2.375       .  S
Zr488       O507   2.435       .  S
Zr488       O500   2.435       .  S
Zr488       O501   2.440       .  S
Zr488       O494   2.406       .  S
Zr488       O495   2.398       .  S
Zr489       O491   2.435       .  S
Zr489       O513   2.438       .  S
Zr489       O515   2.445       .  S
Zr489       O493   2.390       .  S
Zr489       O496   2.392       .  S
Zr490       O516   2.435       .  S
Zr490       O517   2.435       .  S
Zr490       O492   2.436       .  S
Zr490       O493   2.388       .  S
Zr490       O494   2.375       .  S
O491        H528   0.990       .  S
O492        H523   0.990       .  S
O492        H537   0.990       .  S
O494        H520   0.965       .  S
O495       Zr505   2.372       .  S
O496       Zr505   2.379       .  S
O496        H521   0.966       .  S
C497        C647   1.488       .  S
C498        C737   1.467       .  S
C499        C724   1.501       .  S
O500        H536   0.990       .  S
O501        C503   1.286       .  A
O502        C503   1.281       .  A
C503        C564   1.467       .  S
O504       Zr505   2.440       .  S
O504        H533   0.990       .  S
Zr505       O508   2.437       .  S
Zr505       O509   2.441       .  S
Zr505       O510   2.433       .  S
O506        C511   1.283       .  A
O507        H524   0.990       .  S
O507        H539   0.990       .  S
O508        H525   0.990       .  S
O509        H529   0.990       .  S
O509        H538   0.989       .  S
O510        C511   1.285       .  A
C511        C574   1.494       .  S
O512        H531   0.990       .  S
O512        H535   0.990       .  S
O513        H527   0.990       .  S
O513        H534   0.990       .  S
O514        C518   1.286       .  A
O515        C518   1.286       .  A
O516        H526   0.990       .  S
O517        H530   0.990       .  S
C518        C554   1.480       .  S
C541        C542   1.375       .  D
C541        C577   1.496       .  S
C541        C697   1.508       .  S
C542        C607   1.502       .  S
C542        C637   1.498       .  S
C543        C544   1.377       .  D
C543        C917   1.505       .  S
C543        C967   1.496       .  S
C544        C817   1.507       .  S
C544        C864   1.507       .  S
C545        C546   1.362       .  D
C545        C847   1.483       .  S
C545        C904   1.492       .  S
C546        C567   1.489       .  S
C546        C587   1.481       .  S
C547        C548   1.382       .  D
C547        C797   1.507       .  S
C547        C857   1.503       .  S
C548        C557   1.504       .  S
C548        C687   1.501       .  S
C549        C550   1.371       .  D
C549        C627   1.495       .  S
C549        C944   1.492       .  S
C550        C677   1.492       .  S
C550        C807   1.505       .  S
C551        C552   1.373       .  D
C551        C594   1.480       .  S
C551        C617   1.512       .  S
C552        C897   1.489       .  S
C552        C954   1.486       .  S
C553        C554   1.407       .  A
C553        C558   1.411       .  A
C553        H560   1.083       .  S
C554        C555   1.402       .  A
C555        C556   1.392       .  A
C555       Br562   1.917       .  S
C556        C557   1.407       .  A
C556        H561   1.080       .  S
C557        C558   1.413       .  A
C558       Br559   1.915       .  S
C563        C564   1.408       .  A
C563        C568   1.405       .  A
C563        H570   1.083       .  S
C564        C565   1.405       .  A
C565        C566   1.382       .  A
C565       Br572   1.924       .  S
C566        C567   1.404       .  A
C566        H571   1.078       .  S
C567        C568   1.407       .  A
C568       Br569   1.914       .  S
C573        C574   1.409       .  A
C573        C578   1.401       .  A
C573        H580   1.083       .  S
C574        C575   1.416       .  A
C575        C576   1.398       .  A
C575       Br582   1.921       .  S
C576        C577   1.403       .  A
C576        H581   1.084       .  S
C577        C578   1.413       .  A
C578       Br579   1.922       .  S
C583        C584   1.408       .  A
C583        C588   1.397       .  A
C583        H590   1.083       .  S
C584        C585   1.415       .  A
C585        C586   1.377       .  A
C585       Br592   1.931       .  S
C586        C587   1.396       .  A
C586        H591   1.075       .  S
C587        C588   1.403       .  A
C588       Br589   1.912       .  S
C593        C594   1.399       .  A
C593        C598   1.387       .  A
C593        H600   1.084       .  S
C594        C595   1.411       .  A
C595        C596   1.396       .  A
C595       Br602   1.917       .  S
C596        C597   1.401       .  A
C596        H601   1.084       .  S
C597        C598   1.409       .  A
C598       Br599   1.921       .  S
C603        C604   1.407       .  A
C603        C608   1.405       .  A
C603        H610   1.083       .  S
C604        C605   1.413       .  A
C605        C606   1.394       .  A
C605       Br612   1.920       .  S
C606        C607   1.404       .  A
C606        H611   1.083       .  S
C607        C608   1.415       .  A
C608       Br609   1.916       .  S
C613        C614   1.397       .  A
C613        C618   1.389       .  A
C613        H620   1.084       .  S
C614        C615   1.401       .  A
C615        C616   1.391       .  A
C615       Br622   1.916       .  S
C616        C617   1.412       .  A
C616        H621   1.071       .  S
C617        C618   1.426       .  A
C618       Br619   1.919       .  S
C623        C624   1.402       .  A
C623        C628   1.394       .  A
C623        H630   1.084       .  S
C624        C625   1.409       .  A
C625        C626   1.399       .  A
C625       Br632   1.917       .  S
C626        C627   1.404       .  A
C626        H631   1.084       .  S
C627        C628   1.414       .  A
C628       Br629   1.917       .  S
C633        C634   1.407       .  A
C633        C638   1.397       .  A
C633        H640   1.083       .  S
C634        C635   1.418       .  A
C635        C636   1.403       .  A
C635       Br642   1.920       .  S
C636        C637   1.404       .  A
C636        H641   1.083       .  S
C637        C638   1.408       .  A
C638       Br639   1.915       .  S
C643        C644   1.406       .  A
C643        C648   1.406       .  A
C643        H650   1.083       .  S
C644        C645   1.404       .  A
C645        C646   1.385       .  A
C645       Br652   1.914       .  S
C646        C647   1.406       .  A
C646        H651   1.083       .  S
C647        C648   1.417       .  A
C648       Br649   1.918       .  S
C653        C654   1.405       .  A
C653        C658   1.394       .  A
C653        H660   1.083       .  S
C654        C655   1.414       .  A
C655        C656   1.399       .  A
C655       Br662   1.919       .  S
C656        C657   1.407       .  A
C656        H661   1.083       .  S
C657        C658   1.413       .  A
C658       Br659   1.924       .  S
C663        C664   1.407       .  A
C663        C668   1.402       .  A
C663        H670   1.082       .  S
C664        C665   1.417       .  A
C665        C666   1.392       .  A
C665       Br672   1.921   1_545  S
C666        C667   1.398       .  A
C666        H671   1.084       .  S
C667        C668   1.409       .  A
C668       Br669   1.912       .  S
C673        C674   1.411       .  A
C673        C678   1.408       .  A
C673        H680   1.083       .  S
C674        C675   1.428       .  A
C675        C676   1.386       .  A
C675       Br682   1.923       .  S
C676        C677   1.390       .  A
C676        H681   1.083       .  S
C677        C678   1.410       .  A
C678       Br679   1.916       .  S
C683        C684   1.414       .  A
C683        C688   1.397       .  A
C683        H690   1.082       .  S
C684        C685   1.417       .  A
C685        C686   1.408       .  A
C685       Br692   1.919       .  S
C686        C687   1.410       .  A
C686        H691   1.084       .  S
C687        C688   1.409       .  A
C688       Br689   1.919       .  S
C693        C694   1.401       .  A
C693        C698   1.392       .  A
C693        H700   1.084       .  S
C694        C695   1.411       .  A
C695        C696   1.409       .  A
C695       Br702   1.913       .  S
C696        C697   1.411       .  A
C696        H701   1.083       .  S
C697        C698   1.415       .  A
C698       Br699   1.913       .  S
C703        C704   1.402       .  A
C703        C708   1.399       .  A
C703        H710   1.083       .  S
C704        C705   1.412       .  A
C705        C706   1.394       .  A
C705       Br712   1.919       .  S
C706        C707   1.404       .  A
C706        H711   1.081       .  S
C707        C708   1.413       .  A
C708       Br709   1.919       .  S
C713        C714   1.402       .  A
C713        C718   1.400       .  A
C713        H720   1.081       .  S
C714        C715   1.415       .  A
C715        C716   1.410       .  A
C715       Br722   1.910       .  S
C716        C717   1.404       .  A
C716        H721   1.083       .  S
C717        C718   1.417       .  A
C718       Br719   1.921       .  S
C723        C724   1.408       .  A
C723        C728   1.393       .  A
C723        H730   1.082       .  S
C724        C725   1.419       .  A
C725        C726   1.410       .  A
C725       Br732   1.918       .  S
C726        C727   1.406       .  A
C726        H731   1.083       .  S
C727        C728   1.409       .  A
C728       Br729   1.918       .  S
C733        C734   1.409       .  A
C733        C738   1.398       .  A
C733        H740   1.083       .  S
C734        C735   1.413       .  A
C735        C736   1.398       .  A
C735       Br742   1.920       .  S
C736        C737   1.400       .  A
C736        H741   1.084       .  S
C737        C738   1.406       .  A
C738       Br739   1.919       .  S
C743        C744   1.407       .  A
C743        C748   1.376       .  A
C743        H750   1.076       .  S
C744        C745   1.420       .  A
C745        C746   1.412       .  A
C745       Br752   1.917   1_545  S
C746        C747   1.408       .  A
C746        H751   1.083       .  S
C747        C748   1.402       .  A
C748       Br749   1.920       .  S
C753        C754   1.403       .  A
C753        C758   1.393       .  A
C753        H760   1.084       .  S
C754        C755   1.409       .  A
C755        C756   1.388       .  A
C755       Br762   1.920       .  S
C756        C757   1.401       .  A
C756        H761   1.085       .  S
C757        C758   1.404       .  A
C758       Br759   1.918       .  S
C763        C764   1.388       .  A
C763        C768   1.377       .  A
C763        H770   1.083       .  S
C764        C765   1.407       .  A
C765        C766   1.399       .  A
C765       Br772   1.916       .  S
C766        C767   1.408       .  A
C766        H771   1.083       .  S
C767        C768   1.427       .  A
C768       Br769   1.933       .  S
C773        C774   1.404       .  A
C773        C778   1.403       .  A
C773        H780   1.083       .  S
C774        C775   1.412       .  A
C775        C776   1.386       .  A
C775       Br782   1.920   1_545  S
C776        C777   1.400       .  A
C776        H781   1.084       .  S
C777        C778   1.412       .  A
C778       Br779   1.918       .  S
C783        C784   1.398       .  A
C783        C788   1.399       .  A
C783        H790   1.083       .  S
C784        C785   1.408       .  A
C785        C786   1.397       .  A
C785       Br792   1.917       .  S
C786        C787   1.407       .  A
C786        H791   1.083       .  S
C787        C788   1.425       .  A
C788       Br789   1.924       .  S
C793        C794   1.409       .  A
C793        C798   1.411       .  A
C793        H800   1.083       .  S
C794        C795   1.402       .  A
C795        C796   1.391       .  A
C795       Br802   1.923       .  S
C796        C797   1.411       .  A
C796        H801   1.081       .  S
C797        C798   1.413       .  A
C798       Br799   1.917       .  S
C803        C804   1.405       .  A
C803        C808   1.405       .  A
C803        H810   1.084       .  S
C804        C805   1.413       .  A
C805        C806   1.404       .  A
C805       Br812   1.918       .  S
C806        C807   1.406       .  A
C806        H811   1.084       .  S
C807        C808   1.417       .  A
C808       Br809   1.915       .  S
C813        C814   1.409       .  A
C813        C818   1.401       .  A
C813        H820   1.083       .  S
C814        C815   1.419       .  A
C815        C816   1.409       .  A
C815       Br822   1.920       .  S
C816        C817   1.407       .  A
C816        H821   1.081       .  S
C817        C818   1.409       .  A
C818       Br819   1.913       .  S
C823        C824   1.402       .  A
C823        C828   1.395       .  A
C823        H830   1.084       .  S
C824        C825   1.413       .  A
C825        C826   1.407       .  A
C825       Br832   1.918       .  S
C826        C827   1.407       .  A
C826        H831   1.083       .  S
C827        C828   1.413       .  A
C828       Br829   1.918       .  S
C833        C834   1.400       .  A
C833        C838   1.397       .  A
C833        H840   1.083   1_554  S
C834        C835   1.412       .  A
C835        C836   1.409       .  A
C835       Br842   1.914       .  S
C836        C837   1.411       .  A
C836        H841   1.083       .  S
C837        C838   1.420       .  A
C838       Br839   1.920       .  S
C843        C844   1.410       .  A
C843        C848   1.400       .  A
C843        H850   1.083       .  S
C844        C845   1.420       .  A
C845        C846   1.387       .  A
C845       Br852   1.925       .  S
C846        C847   1.394       .  A
C846        H851   1.079       .  S
C847        C848   1.406       .  A
C848       Br849   1.916       .  S
C853        C854   1.410       .  A
C853        C858   1.407       .  A
C853        H860   1.083       .  S
C854        C855   1.428       .  A
C855        C856   1.399       .  A
C855       Br862   1.913       .  S
C856        C857   1.396       .  A
C856        H861   1.084       .  S
C857        C858   1.413       .  A
C858       Br859   1.917       .  S
C863        C864   1.407       .  A
C863        C868   1.406       .  A
C863        H870   1.083       .  S
C864        C865   1.412       .  A
C865        C866   1.405       .  A
C865       Br872   1.916       .  S
C866        C867   1.412       .  A
C866        H871   1.083       .  S
C867        C868   1.414       .  A
C868       Br869   1.912       .  S
C873        C874   1.408       .  A
C873        C878   1.402       .  A
C873        H880   1.079       .  S
C874        C875   1.412       .  A
C875        C876   1.405       .  A
C875       Br882   1.917   1_554  S
C876        C877   1.405       .  A
C876        H881   1.083       .  S
C877        C878   1.410       .  A
C878       Br879   1.921       .  S
C883        C884   1.405       .  A
C883        C888   1.389       .  A
C883        H890   1.081       .  S
C884        C885   1.416       .  A
C885        C886   1.411       .  A
C885       Br892   1.918       .  S
C886        C887   1.412       .  A
C886        H891   1.083       .  S
C887        C888   1.417       .  A
C888       Br889   1.924   1_554  S
C893        C894   1.409       .  A
C893        C898   1.387       .  A
C893        H900   1.083       .  S
C894        C895   1.412       .  A
C895        C896   1.403       .  A
C895       Br902   1.919       .  S
C896        C897   1.408       .  A
C896        H901   1.083       .  S
C897        C898   1.402       .  A
C898       Br899   1.917       .  S
C903        C904   1.405       .  A
C903        C908   1.404       .  A
C903        H910   1.083       .  S
C904        C905   1.414       .  A
C905        C906   1.383       .  A
C905       Br912   1.921       .  S
C906        C907   1.401       .  A
C906        H911   1.082       .  S
C907        C908   1.415       .  A
C908       Br909   1.919       .  S
C913        C914   1.407       .  A
C913        C918   1.402       .  A
C913        H920   1.083       .  S
C914        C915   1.426       .  A
C915        C916   1.403       .  A
C915       Br922   1.922       .  S
C916        C917   1.400       .  A
C916        H921   1.083       .  S
C917        C918   1.416       .  A
C918       Br919   1.919       .  S
C923        C924   1.407       .  A
C923        C928   1.406       .  A
C923        H930   1.084       .  S
C924        C925   1.409       .  A
C925        C926   1.387       .  A
C925       Br932   1.919       .  S
C926        C927   1.410       .  A
C926        H931   1.079       .  S
C927        C928   1.416       .  A
C928       Br929   1.919       .  S
C933        C934   1.410       .  A
C933        C938   1.396       .  A
C933        H940   1.083       .  S
C934        C935   1.409       .  A
C935        C936   1.388       .  A
C935       Br942   1.924       .  S
C936        C937   1.404       .  A
C936        H941   1.080   1_554  S
C937        C938   1.404       .  A
C938       Br939   1.918       .  S
C943        C944   1.406       .  A
C943        C948   1.389       .  A
C943        H950   1.080       .  S
C944        C945   1.411       .  A
C945        C946   1.407       .  A
C945       Br952   1.916       .  S
C946        C947   1.407       .  A
C946        H951   1.083       .  S
C947        C948   1.405       .  A
C948       Br949   1.922       .  S
C953        C954   1.405       .  A
C953        C958   1.393       .  A
C953        H960   1.082       .  S
C954        C955   1.407       .  A
C955        C956   1.400       .  A
C955       Br962   1.919       .  S
C956        C957   1.412       .  A
C956        H961   1.083       .  S
C957        C958   1.414       .  A
C958       Br959   1.922       .  S
C963        C964   1.404       .  A
C963        C968   1.392       .  A
C963        H970   1.083       .  S
C964        C965   1.413       .  A
C965        C966   1.409       .  A
C965       Br972   1.918       .  S
C966        C967   1.406       .  A
C966        H971   1.083       .  S
C967        C968   1.410       .  A
C968       Br969   1.919       .  S
C973        C974   1.404       .  A
C973        C978   1.400       .  A
C973        H980   1.082       .  S
C974        C975   1.411       .  A
C975        C976   1.390       .  A
C975       Br982   1.921       .  S
C976        C977   1.402       .  A
C976        H981   1.084   1_554  S
C977        C978   1.414       .  A
C978       Br979   1.916       .  S
C983        C984   1.406   1_556  A
C983        C988   1.397   1_556  A
C983        H990   1.079       .  S
C984        C985   1.410       .  A
C985        C986   1.401       .  A
C985       Br992   1.917       .  S
C986        C987   1.406       .  A
C986        H991   1.083       .  S
C987        C988   1.411       .  A
C988       Br989   1.922   1_554  S
C993        C994   1.400       .  A
C993        C998   1.395       .  A
C993       H1000   1.081       .  S
C994        C995   1.412       .  A
C995        C996   1.410       .  A
C995      Br1002   1.916       .  S
C996        C997   1.411       .  A
C996       H1001   1.083       .  S
C997        C998   1.418       .  A
C998       Br999   1.922       .  S
C1003      C1004   1.409       .  A
C1003      C1008   1.403       .  A
C1003      H1010   1.083       .  S
C1004      C1005   1.412       .  A
C1005      C1006   1.404       .  A
C1005     Br1012   1.918       .  S
C1006      C1007   1.410       .  A
C1006      H1011   1.083       .  S
C1007      C1008   1.412       .  A
C1008     Br1009   1.921       .  S
C1013      C1014   1.400       .  A
C1013      C1018   1.400       .  A
C1013      H1020   1.084       .  S
C1014      C1015   1.411       .  A
C1015      C1016   1.397       .  A
C1015     Br1022   1.922       .  S
C1016      C1017   1.404       .  A
C1016      H1021   1.082       .  S
C1017      C1018   1.413       .  A
C1018     Br1019   1.914       .  S
C1023      C1024   1.398       .  A
C1023      C1028   1.397       .  A
C1023      H1030   1.083       .  S
C1024      C1025   1.410       .  A
C1025      C1026   1.406       .  A
C1025     Br1032   1.916       .  S
C1026      C1027   1.410       .  A
C1026      H1031   1.083       .  S
C1027      C1028   1.423       .  A
C1028     Br1029   1.924       .  S
