geometry optimzed in LAMMPS
_audit_creation_date              2020-11-30 
_audit_creation_method            'lammps2cif' 
_symmetry_space_group_name_H-M    'P1' 
_symmetry_Int_Tables_number       1 
_symmetry_cell_setting            triclinic 
loop_ 
_symmetry_equiv_pos_as_xyz 
  x,y,z 
_cell_length_a                    42.89396231 
_cell_length_b                    43.09893893444831 
_cell_length_c                    38.07396357772702 
_cell_angle_alpha                 89.92375946075457 
_cell_angle_beta                  89.97531323561493 
_cell_angle_gamma                 89.80529493279568 
loop_ 
_atom_site_label 
_atom_site_type_symbol 
_atom_site_fract_x 
_atom_site_fract_y 
_atom_site_fract_z 
_atom_site_charge 
N1          N  0.43262426  0.01364746  0.45977249    -0.06000
N2          N  0.41475451  0.02369638  0.43390123    -0.58100
N3          N  0.43313420  0.48504184  0.04263082    -0.05700
N4          N  0.41485150  0.47484990  0.06794439    -0.60200
N5          N  0.43210112  0.01734797  0.04311652    -0.05200
N6          N  0.41287763  0.02885016  0.06691724    -0.58100
N7          N  0.43331237  0.48437798  0.46410060    -0.04900
N8          N  0.41434552  0.47359815  0.43975622    -0.60600
C9          C  0.40298700  0.49939740  0.42398945     0.96200
C10         C  0.40093828  0.00338031  0.08276071     0.96000
N11         N  0.01685132  0.43355985  0.04692694    -0.06200
N12         N  0.02705465  0.41596584  0.07308999    -0.58700
N13         N  0.48442143  0.43234151  0.46279802    -0.04300
N14         N  0.47257890  0.41376568  0.43883978    -0.59900
N15         N  0.01320596  0.42932778  0.46302081    -0.06200
N16         N  0.02282943  0.40945819  0.43891316    -0.58900
N17         N  0.48522832  0.43355701  0.04436472    -0.03900
N18         N  0.47440792  0.41568823  0.06961255    -0.60000
Mn19       Mn  0.45824695  0.45759274  0.00344146     1.18400
C20         C  0.00053221  0.40617453  0.08903996     0.98300
C21         C  0.49788116  0.40191331  0.42248452     0.99000
N22         N  0.48451906  0.06787166  0.04116777    -0.06200
N23         N  0.47336691  0.08713109  0.06494160    -0.62500
N24         N  0.01494239  0.06556691  0.46059273    -0.05000
N25         N  0.02577797  0.08302446  0.43480647    -0.63200
N26         N  0.48317681  0.06668936  0.46012417    -0.05700
N27         N  0.47203228  0.08514827  0.43547343    -0.62800
N28         N  0.01513334  0.06635150  0.03958916    -0.04600
N29         N  0.02549916  0.08608997  0.06341118    -0.63500
Mn30       Mn  0.45682675  0.04101853  0.50028832     1.10700
C31         C  0.99918441  0.09880908  0.07711117     0.99500
C32         C  0.49777428  0.09715296  0.42011407     0.99600
N33         N  0.06629100  0.48089358  0.46056076    -0.05700
N34         N  0.08456150  0.46949070  0.43575855    -0.61100
N35         N  0.06668365  0.01266783  0.04124158    -0.05000
N36         N  0.08561586  0.02333896  0.06570016    -0.57800
N37         N  0.06997384  0.48487976  0.04229414    -0.06300
N38         N  0.09036610  0.47517238  0.06589778    -0.60700
N39         N  0.06712029  0.01367911  0.46326976    -0.05300
N40         N  0.08626615  0.02359892  0.43853499    -0.57800
Mn41       Mn  0.04313328  0.45670172  0.00431912     1.20200
Mn42       Mn  0.04102287  0.04146059  0.50226458     1.10100
Cl43       Cl  0.99910723  0.99828248  0.00110981    -0.85800
C44         C  0.09613863  0.49493476  0.41952903     0.96500
C45         C  0.09704495  0.99743974  0.08130689     0.96300
N46         N  0.49638109  0.29807998  0.25254375    -0.36500
N47         N  0.49275107  0.25049818  0.30634081    -0.57000
N48         N  0.49571897  0.20290889  0.25162188    -0.36500
N49         N  0.49489989  0.25054051  0.19781393    -0.57000
C50         C  0.49121234  0.31568183  0.28129367     0.27100
C51         C  0.48956113  0.31571140  0.22422130     0.27100
C52         C  0.48798075  0.18543506  0.27981415     0.27100
C53         C  0.49133027  0.18532915  0.22263965     0.27100
C54         C  0.49887615  0.27515975  0.32704702     0.35700
C55         C  0.49601901  0.22505677  0.32673133     0.35700
C56         C  0.49822456  0.27598008  0.17745557     0.35700
C57         C  0.50050474  0.22578106  0.17699207     0.35700
C58         C  0.48131121  0.34501549  0.27117853    -0.21700
C59         C  0.48024890  0.34503810  0.23512418    -0.21700
C60         C  0.47879365  0.15625012  0.26865194    -0.21700
C61         C  0.48103878  0.15612780  0.23261059    -0.21700
C62         C  0.50558314  0.26540230  0.36090837    -0.22800
C63         C  0.50365444  0.23361685  0.36074753    -0.22800
C64         C  0.50533983  0.26735524  0.14330649    -0.22800
C65         C  0.50683335  0.23553537  0.14302385    -0.22800
C66         C  0.49656199  0.30643268  0.31632377    -0.18100
C67         C  0.49360068  0.30683064  0.18882856    -0.18100
C68         C  0.49768411  0.19448526  0.18762191    -0.18100
C69         C  0.49120126  0.19426276  0.31540607    -0.18100
H70         H  0.47564785  0.36446243  0.28800213     0.14800
H71         H  0.47373848  0.36459741  0.21882131     0.14800
H72         H  0.47164532  0.13686947  0.28483464     0.14800
H73         H  0.47586210  0.13661079  0.21577586     0.14800
H74         H  0.51103286  0.27970227  0.38341949     0.13000
H75         H  0.50743580  0.21854774  0.38311805     0.13000
H76         H  0.50883687  0.28238975  0.12086439     0.13000
H77         H  0.51154834  0.22123830  0.12027607     0.13000
H78         H  0.50592308  0.27598690  0.25226397     0.26300
H79         H  0.50536324  0.22487984  0.25226199     0.26300
N80         N  0.20396144  0.50454389  0.25045755    -0.36500
N81         N  0.24963111  0.49633100  0.30652159    -0.57000
N82         N  0.29956671  0.50293542  0.25517062    -0.36500
N83         N  0.25391330  0.50696767  0.19901193    -0.57000
C84         C  0.18541044  0.49558582  0.27730818     0.27100
C85         C  0.18777387  0.50016138  0.22040904     0.27100
C86         C  0.31565424  0.49332717  0.28367138     0.27100
C87         C  0.31790588  0.49789763  0.22687697     0.27100
C88         C  0.22366093  0.50049709  0.32605907     0.35700
C89         C  0.27407330  0.49983818  0.32852878     0.35700
C90         C  0.22963934  0.51320935  0.17758994     0.35700
C91         C  0.27997709  0.51252566  0.18024397     0.35700
C92         C  0.15693692  0.48579086  0.26428509    -0.21700
C93         C  0.15840985  0.48867574  0.22836471    -0.21700
C94         C  0.34468854  0.48231939  0.27348270    -0.21700
C95         C  0.34608112  0.48511630  0.23754991    -0.21700
C96         C  0.23161398  0.50615497  0.36074320    -0.22800
C97         C  0.26361386  0.50578498  0.36229438    -0.22800
C98         C  0.24030107  0.52256377  0.14488688    -0.22800
C99         C  0.27226685  0.52224343  0.14660876    -0.22800
C100        C  0.19288115  0.49764019  0.31334078    -0.18100
C101        C  0.19818788  0.50760426  0.18617055    -0.18100
C102        C  0.31047492  0.50590335  0.19192411    -0.18100
C103        C  0.30563022  0.49622408  0.31878211    -0.18100
H104        H  0.13708101  0.47759578  0.27914934     0.14800
H105        H  0.13981355  0.48315891  0.21024363     0.14800
H106        H  0.36302289  0.47337826  0.29023879     0.14800
H107        H  0.36573549  0.47877171  0.22119698     0.14800
H108        H  0.21599139  0.51005179  0.38264159     0.13000
H109        H  0.27757389  0.50925751  0.38562480     0.13000
H110        H  0.22652453  0.52831705  0.12196431     0.13000
H111        H  0.28802225  0.52772691  0.12528518     0.13000
H112        H  0.22573029  0.51473434  0.25274581     0.26300
H113        H  0.27812125  0.51413098  0.25533717     0.26300
C114        C  0.12809060  0.02631546  0.12581894    -0.12100
C115        C  0.12087034  0.99787278  0.10962753     0.04900
C116        C  0.14481198  0.47618579  0.11616563    -0.07400
C117        C  0.16807645  0.47839010  0.14171432    -0.08200
C118        C  0.17507555  0.50683826  0.15731080    -0.02700
C119        C  0.15070160  0.02796646  0.15223908     0.04100
N120        N  0.15772192  0.05717525  0.16800659     0.66600
H121        H  0.11613336  0.04740810  0.11803315     0.15500
H122        H  0.18037932  0.45762176  0.14999704     0.15200
N123        N  0.13850381  0.44643001  0.10148901     0.74300
O124        O  0.17873898  0.07401298  0.15489194    -0.39100
O125        O  0.14699331  0.06353217  0.19801910    -0.39100
O126        O  0.15646363  0.43559350  0.07825900    -0.39800
O127        O  0.12012032  0.42845647  0.11734582    -0.39800
C128        C  0.13154436  0.02450107  0.38072893    -0.12100
C129        C  0.11965412  0.49434516  0.39078800     0.04900
C130        C  0.13808449  0.46776197  0.38353143    -0.07400
C131        C  0.16163180  0.46917917  0.35807648    -0.08200
C132        C  0.16699424  0.49649332  0.33918225    -0.02700
C133        C  0.15497135  0.02488516  0.35513644     0.04100
N134        N  0.16380761  0.05363145  0.33928076     0.66600
H135        H  0.12075671  0.04624830  0.38832104     0.15500
H136        H  0.17604719  0.44892663  0.35323366     0.15200
N137        N  0.13409441  0.43944569  0.40250572     0.74300
O138        O  0.14900939  0.06358268  0.31291603    -0.39100
O139        O  0.18905577  0.06642116  0.34802598    -0.39100
O140        O  0.11811948  0.41796369  0.38911817    -0.39800
O141        O  0.15197144  0.43338189  0.42793221    -0.39800
C142        C  0.37833633  0.52780381  0.13327916    -0.12100
C143        C  0.37592938  0.00424191  0.10956282     0.04900
C144        C  0.35884666  0.97731677  0.11851535    -0.07400
C145        C  0.33507387  0.97905106  0.14335905    -0.08200
C146        C  0.33549969  0.50445997  0.16528813    -0.02700
C147        C  0.35620906  0.52926661  0.16028247     0.04100
N148        N  0.35459016  0.55615519  0.18212814     0.66600
H149        H  0.39390855  0.54721224  0.12931816     0.15500
H150        H  0.32228574  0.95825625  0.15025629     0.15200
N151        N  0.36486497  0.94801863  0.10237626     0.74300
O152        O  0.37006604  0.55704669  0.21028347    -0.39100
O153        O  0.31421617  0.07865662  0.15749585    -0.39100
O154        O  0.36980764  0.42420405  0.10672053    -0.39800
O155        O  0.34854500  0.93970020  0.07650513    -0.39800
C156        C  0.34753364  0.52376882  0.35074014    -0.12100
C157        C  0.32995724  0.49675995  0.34638826     0.04900
C158        C  0.33693932  0.47035088  0.36660858    -0.07400
C159        C  0.36097090  0.47154854  0.39150412    -0.08200
C160        C  0.37851372  0.49881426  0.39638337    -0.02700
C161        C  0.37180551  0.52497503  0.37523139     0.04100
N162        N  0.39036608  0.55238453  0.37685254     0.66600
H163        H  0.34274741  0.54386544  0.33443497     0.15500
H164        H  0.37536453  0.94649137  0.39310701     0.15200
N165        N  0.32048862  0.44197079  0.36117995     0.74300
O166        O  0.41429750  0.55441280  0.35770719    -0.39100
O167        O  0.37168939  0.07502805  0.39058647    -0.39100
O168        O  0.32899020  0.42374623  0.33706864    -0.39800
O169        O  0.30568359  0.92749114  0.35991113    -0.39800
C170        C  0.02641808  0.13054512  0.12232635    -0.12100
C171        C  0.99876309  0.12363893  0.10420636     0.04900
C172        C  0.46981312  0.13629857  0.12053587    -0.07400
C173        C  0.47029174  0.15930273  0.14640759    -0.08200
C174        C  0.49846305  0.17012532  0.16006963    -0.02700
C175        C  0.02705882  0.15350100  0.14834864     0.04100
N176        N  0.05546088  0.15920461  0.16674909     0.66600
H177        H  0.04763991  0.11779446  0.11665513     0.15500
H178        H  0.44846763  0.16886126  0.15594422     0.15200
N179        N  0.44022000  0.12655339  0.10741914     0.74300
O180        O  0.06300815  0.14187364  0.19211293    -0.39100
O181        O  0.07563015  0.17682479  0.15326724    -0.39100
O182        O  0.42313056  0.10953838  0.12627801    -0.39800
O183        O  0.42841226  0.14056586  0.08149090    -0.39800
C184        C  0.02432210  0.15049648  0.34714841    -0.12100
C185        C  0.49234527  0.16926761  0.34209253     0.04900
C186        C  0.46563791  0.15986594  0.36060412    -0.07400
C187        C  0.46789542  0.13591843  0.38530261    -0.08200
C188        C  0.49663587  0.12139678  0.39246921    -0.02700
C189        C  0.02637691  0.12687387  0.37232062     0.04100
N190        N  0.05629378  0.11381643  0.37988404     0.66600
H191        H  0.04531955  0.15851784  0.33420033     0.15500
H192        H  0.44705704  0.12911934  0.39940167     0.15200
N193        N  0.43618260  0.17457136  0.35481787     0.74300
O194        O  0.06574192  0.09073849  0.36246206    -0.39100
O195        O  0.07555431  0.12918667  0.39780567    -0.39100
O196        O  0.41550192  0.16060618  0.33744303    -0.39800
O197        O  0.42863094  0.19776214  0.37318219    -0.39800
C198        C  0.47031221  0.36744732  0.12179694    -0.12100
C199        C  0.99876405  0.38208940  0.11678593     0.04900
C200        C  0.02379867  0.37514101  0.13956470    -0.07400
C201        C  0.02137328  0.35031025  0.16316483    -0.08200
C202        C  0.49501550  0.33183842  0.16236484    -0.02700
C203        C  0.46796927  0.34336260  0.14614032     0.04100
N204        N  0.43801828  0.33076201  0.15403572     0.66600
H205        H  0.44915294  0.37580852  0.10940816     0.15500
H206        H  0.04073086  0.34504302  0.18049585     0.15200
N207        N  0.05137937  0.39353854  0.14005265     0.74300
O208        O  0.42744619  0.30906670  0.13533727    -0.39100
O209        O  0.41974259  0.34560701  0.17388068    -0.39100
O210        O  0.05199270  0.41763172  0.15884554    -0.39800
O211        O  0.07672844  0.38158363  0.12999739    -0.39800
C212        C  0.47036436  0.33644208  0.36335948    -0.12100
C213        C  0.49725426  0.33086340  0.34356658     0.04900
C214        C  0.02328569  0.34049424  0.35651285    -0.07400
C215        C  0.02292831  0.36379068  0.38205473    -0.08200
C216        C  0.49670012  0.37792905  0.39479747    -0.02700
C217        C  0.46970822  0.35990856  0.38863934     0.04100
N218        N  0.44159994  0.36463595  0.40808753     0.66600
H219        H  0.44968140  0.32261011  0.35890614     0.15500
H220        H  0.04476411  0.37464026  0.38922795     0.15200
N221        N  0.05220809  0.33203268  0.34054721     0.74300
O222        O  0.42062442  0.38206530  0.39565694    -0.39100
O223        O  0.43506151  0.34654345  0.43309044    -0.39100
O224        O  0.06321325  0.34879568  0.31637660    -0.39800
O225        O  0.06959044  0.31238560  0.35549954    -0.39100
N226        N  0.43179269  0.01541018  0.96258565    -0.06000
N227        N  0.41348753  0.02562521  0.93718057    -0.58100
N228        N  0.43503644  0.48381290  0.54448908    -0.05700
N229        N  0.41755198  0.47251271  0.56984207    -0.60200
N230        N  0.43186723  0.01432129  0.54073817    -0.05200
N231        N  0.41356985  0.02473494  0.56605270    -0.58100
N232        N  0.43254845  0.48284898  0.96243149    -0.04900
N233        N  0.41296040  0.47146004  0.93906623    -0.60600
C234        C  0.40138339  0.49691667  0.92275163     0.96200
C235        C  0.40301873  0.99861010  0.58183321     0.96000
N236        N  0.01484657  0.43165855  0.54371995    -0.06200
N237        N  0.02567456  0.41400095  0.56936982    -0.58700
N238        N  0.48411582  0.43108050  0.96413866    -0.04300
N239        N  0.47261718  0.41212219  0.94033180    -0.59900
N240        N  0.01522027  0.42980286  0.96582904    -0.06200
N241        N  0.02474565  0.40984390  0.94169857    -0.58900
N242        N  0.48634723  0.43154515  0.54315783    -0.03900
N243        N  0.47587391  0.41335615  0.56841748    -0.60000
Mn244      Mn  0.45922509  0.45756329  0.50371462     1.18400
C245        C  0.99965193  0.40417557  0.58610894     0.98300
C246        C  0.49811516  0.39960292  0.92501273     0.99000
N247        N  0.48232723  0.06714129  0.54067240    -0.06200
N248        N  0.47063127  0.08562020  0.56502275    -0.62500
N249        N  0.01601073  0.06427074  0.95915461    -0.05000
N250        N  0.02723279  0.08256122  0.93435359    -0.63200
N251        N  0.48471783  0.06613457  0.96105616    -0.05700
N252        N  0.47387003  0.08430424  0.93605338    -0.62800
N253        N  0.01344113  0.06806953  0.54139804    -0.04600
N254        N  0.02342419  0.08789153  0.56531381    -0.63500
Mn255      Mn  0.45774754  0.04229087  0.00188714     1.10700
C256        C  0.99694318  0.09970402  0.57960274     0.99500
C257        C  0.49977492  0.09562726  0.92045980     0.99600
N258        N  0.06743685  0.48161219  0.96185012    -0.05700
N259        N  0.08445201  0.46991115  0.93614310    -0.61100
N260        N  0.06612261  0.01592119  0.54357628    -0.05000
N261        N  0.08571972  0.02731289  0.56693570    -0.57800
N262        N  0.06745812  0.48248304  0.54093080    -0.06300
N263        N  0.08729814  0.47163556  0.56441614    -0.60700
N264        N  0.06654236  0.01108368  0.96054722    -0.05300
N265        N  0.08485629  0.02099706  0.93507301    -0.57800
Mn266      Mn  0.04105421  0.45547383  0.50193646     1.20200
Mn267      Mn  0.04180876  0.03917067  0.00028749     1.10100
Cl268      Cl  0.99922692  0.99959874  0.50272544    -0.85800
C269        C  0.09493307  0.49515450  0.91860604     0.96500
C270        C  0.09820964  0.00187904  0.58241147     0.96300
N271        N  0.49316728  0.29698753  0.75506065    -0.36500
N272        N  0.49290585  0.24756590  0.80726159    -0.57000
N273        N  0.48957417  0.20145690  0.75109467    -0.36500
N274        N  0.49456173  0.25074300  0.69893518    -0.57000
C275        C  0.50082981  0.31307491  0.78429977     0.27100
C276        C  0.50019662  0.31504056  0.72709810     0.27100
C277        C  0.49461530  0.18296037  0.77925212     0.27100
C278        C  0.49635459  0.18460126  0.72208843     0.27100
C279        C  0.49011490  0.27216607  0.82898604     0.35700
C280        C  0.48706360  0.22210245  0.82682665     0.35700
C281        C  0.49045692  0.27663689  0.67936353     0.35700
C282        C  0.49015259  0.22632786  0.67720426     0.35700
C283        C  0.51248548  0.34186413  0.77479163    -0.21700
C284        C  0.51216401  0.34307148  0.73870504    -0.21700
C285        C  0.50409620  0.15381693  0.76798202    -0.21700
C286        C  0.50523127  0.15487046  0.73194233    -0.21700
C287        C  0.48275246  0.26230020  0.86263435    -0.22800
C288        C  0.48081202  0.23052995  0.86126814    -0.22800
C289        C  0.48362106  0.26857625  0.64495822    -0.22800
C290        C  0.48359531  0.23672010  0.64357046    -0.22800
C291        C  0.49614185  0.30319638  0.81934963    -0.18100
C292        C  0.49510234  0.30738016  0.69143260    -0.18100
C293        C  0.49355836  0.19480227  0.68688983    -0.18100
C294        C  0.49012224  0.19126536  0.81482167    -0.18100
H295        H  0.52036510  0.36015834  0.79205904     0.14800
H296        H  0.51980350  0.36245816  0.72282365     0.14800
H297        H  0.50967758  0.13381409  0.78403691     0.14800
H298        H  0.51185939  0.13585673  0.71493129     0.14800
H299        H  0.47962075  0.27645838  0.88583803     0.13000
H300        H  0.47592128  0.21533205  0.88323295     0.13000
H301        H  0.47948404  0.28402749  0.62300689     0.13000
H302        H  0.47940163  0.22279961  0.62041994     0.13000
H303        H  0.48217060  0.27562602  0.75418409     0.26300
H304        H  0.48065987  0.22382231  0.75166143     0.26300
N305        N  0.20245152  0.49739213  0.74836096    -0.36500
N306        N  0.24706588  0.49311029  0.80601366    -0.57000
N307        N  0.29789295  0.49600273  0.75538092    -0.36500
N308        N  0.25330132  0.49578844  0.69771728    -0.57000
C309        C  0.18303467  0.49154567  0.77551428     0.27100
C310        C  0.18635608  0.49212090  0.71846614     0.27100
C311        C  0.31372462  0.48864290  0.78489583     0.27100
C312        C  0.31715176  0.49057856  0.72798783     0.27100
C313        C  0.22080919  0.49803198  0.82477007     0.35700
C314        C  0.27113158  0.49663857  0.82849639     0.35700
C315        C  0.22935416  0.49998337  0.67517384     0.35700
C316        C  0.27969613  0.50007569  0.67904289     0.35700
C317        C  0.15406430  0.48292793  0.76275809    -0.21700
C318        C  0.15615548  0.48326674  0.72677075    -0.21700
C319        C  0.34353412  0.47869382  0.77617983    -0.21700
C320        C  0.34571389  0.47996776  0.74022943    -0.21700
C321        C  0.22820938  0.50415573  0.85953185    -0.22800
C322        C  0.26014894  0.50333967  0.86186727    -0.22800
C323        C  0.24057789  0.50635517  0.64180911    -0.22800
C324        C  0.27250669  0.50651783  0.64427864    -0.22800
C325        C  0.19021982  0.49526950  0.81144476    -0.18100
C326        C  0.19755067  0.49661886  0.68390054    -0.18100
C327        C  0.31020329  0.49632835  0.69236701    -0.18100
C328        C  0.30280644  0.49256007  0.81958027    -0.18100
H329        H  0.13344095  0.47720251  0.77778014     0.14800
H330        H  0.13740377  0.47785767  0.70881173     0.14800
H331        H  0.36192618  0.47152785  0.79391174     0.14800
H332        H  0.36609598  0.47394594  0.72488408     0.14800
H333        H  0.21226777  0.50856681  0.88101018     0.13000
H334        H  0.27371277  0.50700551  0.88545582     0.13000
H335        H  0.22717743  0.51027114  0.61812489     0.13000
H336        H  0.28858393  0.51052584  0.62283955     0.13000
H337        H  0.22480457  0.50618283  0.75017449     0.26300
H338        H  0.27595944  0.50603473  0.75411580     0.26300
C339        C  0.13244502  0.03191283  0.62315325    -0.12100
C340        C  0.12376891  0.00307768  0.60873309     0.04900
C341        C  0.14046842  0.46887041  0.61557714    -0.07400
C342        C  0.16459124  0.46939698  0.64024217    -0.08200
C343        C  0.17421179  0.49729026  0.65524882    -0.02700
C344        C  0.15659566  0.03391756  0.64785044     0.04100
N345        N  0.16483877  0.06338374  0.66224441     0.66600
H346        H  0.12036236  0.05295639  0.61544180     0.15500
H347        H  0.17537722  0.44778749  0.64843907     0.15200
N348        N  0.13098481  0.43950330  0.60213527     0.74300
O349        O  0.18755315  0.07815859  0.64952210    -0.39100
O350        O  0.15300350  0.07204760  0.69096228    -0.39100
O351        O  0.14537678  0.42786820  0.57638987    -0.39800
O352        O  0.11371117  0.42246434  0.62070106    -0.39800
C353        C  0.12643035  0.02246132  0.87433877    -0.12100
C354        C  0.11728990  0.49428239  0.88880535     0.04900
C355        C  0.13068161  0.46622078  0.87652846    -0.07400
C356        C  0.15423077  0.46700413  0.85113517    -0.08200
C357        C  0.16413964  0.49517612  0.83686389    -0.02700
C358        C  0.14998834  0.02384783  0.84898090     0.04100
N359        N  0.15707111  0.05280681  0.83252246     0.66600
H360        H  0.11413039  0.04362185  0.88111844     0.15500
H361        H  0.16496999  0.44550602  0.84256030     0.15200
N362        N  0.12087227  0.43670767  0.88946878     0.74300
O363        O  0.14284059  0.06069102  0.80490210    -0.39100
O364        O  0.18063116  0.06798107  0.84226659    -0.39100
O365        O  0.10150342  0.42113364  0.87191990    -0.39800
O366        O  0.13660808  0.42343265  0.91314189    -0.39800
C367        C  0.37623377  0.52388464  0.63415582    -0.12100
C368        C  0.37991535  0.99838966  0.61083760     0.04900
C369        C  0.36348249  0.97119004  0.62037031    -0.07400
C370        C  0.34073515  0.97246162  0.64663104    -0.08200
C371        C  0.33635834  0.49658728  0.66709983    -0.02700
C372        C  0.35314567  0.52387063  0.66019726     0.04100
N373        N  0.34631951  0.55180128  0.67890224     0.66600
H374        H  0.38861518  0.54521692  0.62864079     0.15500
H375        H  0.32780867  0.95170034  0.65329253     0.15200
N376        N  0.36847569  0.94237285  0.60271685     0.74300
O377        O  0.35806918  0.55614748  0.70886634    -0.39100
O378        O  0.32258239  0.07301024  0.66268905    -0.39100
O379        O  0.38739651  0.41929668  0.61911153    -0.39800
O380        O  0.35316347  0.93645686  0.57525246    -0.39800
C381        C  0.34413217  0.52076183  0.85137605    -0.12100
C382        C  0.32656842  0.49370987  0.84768187     0.04900
C383        C  0.33359827  0.46756850  0.86833043    -0.07400
C384        C  0.35822176  0.46886740  0.89246640    -0.08200
C385        C  0.37606714  0.49605897  0.89626846    -0.02700
C386        C  0.36876798  0.52216491  0.87527229     0.04100
N387        N  0.38689088  0.54987158  0.87668437     0.66600
H388        H  0.33909480  0.54071105  0.83493132     0.15500
H389        H  0.36718790  0.94994519  0.90389067     0.15200
N390        N  0.31638530  0.43945215  0.86430561     0.74300
O391        O  0.40891549  0.55354857  0.85511146    -0.39100
O392        O  0.37575522  0.07662117  0.89132951    -0.39100
O393        O  0.32221724  0.42162845  0.83885134    -0.39800
O394        O  0.29679877  0.93418292  0.87194206    -0.39800
C395        C  0.02455732  0.13954557  0.61536651    -0.12100
C396        C  0.99638325  0.12495772  0.60635612     0.04900
C397        C  0.46715478  0.12976380  0.62701104    -0.07400
C398        C  0.46723899  0.15342467  0.65227434    -0.08200
C399        C  0.49415105  0.17077051  0.65880701    -0.02700
C400        C  0.02542701  0.16354010  0.64017933     0.04100
N401        N  0.05466520  0.17740777  0.64861085     0.66600
H402        H  0.04619404  0.13232923  0.60311612     0.15500
H403        H  0.44611449  0.15834964  0.66690480     0.15200
N404        N  0.43884238  0.11317312  0.62121400     0.74300
O405        O  0.07153276  0.16528877  0.67208661    -0.39100
O406        O  0.06652776  0.19667488  0.62755383    -0.39100
O407        O  0.43069001  0.09251927  0.64283338    -0.39800
O408        O  0.41896489  0.12402386  0.60003938    -0.39800
C409        C  0.02451310  0.15988922  0.85716023    -0.12100
C410        C  0.49246265  0.16639207  0.84149245     0.04900
C411        C  0.46643828  0.14865387  0.85118215    -0.07400
C412        C  0.46968492  0.12531843  0.87635072    -0.08200
C413        C  0.49865919  0.11912495  0.89215624    -0.02700
C414        C  0.02722577  0.13628758  0.88226859     0.04100
N415        N  0.05611322  0.13286255  0.90055713     0.66600
H416        H  0.04433319  0.17470459  0.85181554     0.15500
H417        H  0.44921709  0.11214579  0.88370719     0.15200
N418        N  0.43648397  0.15436518  0.83610609     0.74300
O419        O  0.07694188  0.11534217  0.88801661    -0.39100
O420        O  0.06336921  0.15236363  0.92383198    -0.39100
O421        O  0.42742295  0.13781155  0.81080773    -0.39800
O422        O  0.41677810  0.17019246  0.85303635    -0.39800
C423        C  0.47682622  0.37830892  0.63532719    -0.12100
C424        C  0.99912503  0.38162190  0.61546053     0.04900
C425        C  0.02376707  0.36043396  0.62142825    -0.07400
C426        C  0.02076460  0.33754590  0.64722129    -0.08200
C427        C  0.49744900  0.33259709  0.66481894    -0.02700
C428        C  0.47462693  0.35607869  0.66204707     0.04100
N429        N  0.44886979  0.35740005  0.68581296     0.66600
H430        H  0.45880210  0.39589770  0.63318520     0.15500
H431        H  0.03951061  0.32093968  0.65099325     0.15200
N432        N  0.05152588  0.36089084  0.60075493     0.74300
O433        O  0.42320338  0.34553378  0.67697623    -0.39100
O434        O  0.44960522  0.37620910  0.71117132    -0.39100
O435        O  0.07664064  0.36974321  0.61465430    -0.39800
O436        O  0.05254152  0.34556416  0.57256919    -0.39800
C437        C  0.46957537  0.34383519  0.85446894    -0.12100
C438        C  0.49683211  0.32710720  0.84731994     0.04900
C439        C  0.02089831  0.33030847  0.87104288    -0.07400
C440        C  0.02185882  0.35451780  0.89554951    -0.08200
C441        C  0.49709500  0.37500005  0.89783242    -0.02700
C442        C  0.46930656  0.36736911  0.87973975     0.04100
N443        N  0.44060887  0.38322347  0.88646451     0.66600
H444        H  0.44833322  0.33851038  0.84032192     0.15500
H445        H  0.04274989  0.35757067  0.91113894     0.15200
N446        N  0.04748818  0.31057811  0.86713914     0.74300
O447        O  0.43243552  0.40537837  0.86678620    -0.39100
O448        O  0.42077023  0.37098606  0.90662134    -0.39100
O449        O  0.07026469  0.31959848  0.84885716    -0.39800
O450        O  0.05092865  0.28775657  0.88758466    -0.39100
N451        N  0.43355476  0.51489740  0.46367695    -0.06000
N452        N  0.41468620  0.52545134  0.43888999    -0.58100
N453        N  0.43201182  0.98686182  0.04424903    -0.05700
N454        N  0.41266972  0.97701856  0.06869358    -0.60200
N455        N  0.43296772  0.51552229  0.04161564    -0.05200
N456        N  0.41466770  0.52673817  0.06650067    -0.58100
N457        N  0.43329745  0.98314649  0.46018788    -0.04900
N458        N  0.41593756  0.97185154  0.43465419    -0.60600
C459        C  0.40464200  0.99738695  0.41824544     0.96200
C460        C  0.40350630  0.50106133  0.08268545     0.96000
N461        N  0.01325544  0.93190941  0.04362889    -0.06200
N462        N  0.02354355  0.91380401  0.06915022    -0.58700
N463        N  0.48557717  0.93174247  0.46148076    -0.04300
N464        N  0.47512496  0.91204208  0.43774418    -0.59900
N465        N  0.01477928  0.93073191  0.46472507    -0.06200
N466        N  0.02504491  0.91036225  0.44137335    -0.58900
N467        N  0.48350909  0.93378303  0.04477699    -0.03900
N468        N  0.47309998  0.91503913  0.06956634    -0.60000
Mn469      Mn  0.45650858  0.95905060  0.00457033     1.18400
C470        C  0.99721290  0.90393411  0.08522931     0.98300
C471        C  0.50129930  0.90028565  0.42292974     0.99000
N472        N  0.48476450  0.56676849  0.03988874    -0.06200
N473        N  0.47351043  0.58574572  0.06396405    -0.62500
N474        N  0.01507922  0.56370945  0.45904833    -0.05000
N475        N  0.02587348  0.58121489  0.43329058    -0.63200
N476        N  0.48672779  0.56661276  0.46357527    -0.05700
N477        N  0.47651545  0.58505152  0.43827994    -0.62800
N478        N  0.01705281  0.56780443  0.04001575    -0.04600
N479        N  0.02759464  0.58772729  0.06355011    -0.63500
Mn480      Mn  0.45964039  0.54113545  0.50406793     1.10700
C481        C  0.00136891  0.59937880  0.07861460     0.99500
C482        C  0.50288978  0.59584645  0.42285947     0.99600
N483        N  0.06702489  0.98314667  0.46422067    -0.05700
N484        N  0.08611350  0.97177716  0.44027901    -0.61100
N485        N  0.06975179  0.51540385  0.04095077    -0.05000
N486        N  0.08991043  0.52695944  0.06361009    -0.57800
N487        N  0.06647903  0.98214039  0.04164060    -0.06300
N488        N  0.08526390  0.97149826  0.06640128    -0.60700
N489        N  0.06675468  0.51143114  0.45996928    -0.05300
N490        N  0.08517790  0.52132574  0.43450671    -0.57800
Mn491      Mn  0.04022211  0.95534614  0.00224849     1.20200
Mn492      Mn  0.04178585  0.53930377  0.50011823     1.10100
Cl493      Cl  0.00129025  0.49906152  0.00309911    -0.85800
C494        C  0.09790448  0.99719680  0.42427839     0.96500
C495        C  0.10261418  0.50163233  0.07912759     0.96300
N496        N  0.49880276  0.79642776  0.25353827    -0.36500
N497        N  0.50379036  0.74708578  0.30601657    -0.57000
N498        N  0.49892589  0.70070520  0.25023850    -0.36500
N499        N  0.49870500  0.75005420  0.19743979    -0.57000
C500        C  0.50718678  0.81316891  0.28205361     0.27100
C501        C  0.50274285  0.81475723  0.22502302     0.27100
C502        C  0.50378366  0.68189630  0.27822988     0.27100
C503        C  0.50326105  0.68359224  0.22080751     0.27100
C504        C  0.50269893  0.77179639  0.32786014     0.35700
C505        C  0.50059679  0.72151621  0.32631353     0.35700
C506        C  0.49237071  0.77564549  0.17812160     0.35700
C507        C  0.49454148  0.72538590  0.17605511     0.35700
C508        C  0.51601179  0.84268436  0.27152662    -0.21700
C509        C  0.51345995  0.84360087  0.23557916    -0.21700
C510        C  0.51071231  0.65222186  0.26642175    -0.21700
C511        C  0.51061637  0.65334101  0.23029314    -0.21700
C512        C  0.49952796  0.76185836  0.36229411    -0.22800
C513        C  0.49819016  0.73006408  0.36132669    -0.22800
C514        C  0.48430959  0.76717533  0.14419318    -0.22800
C515        C  0.48583117  0.73536856  0.14284732    -0.22800
C516        C  0.50564587  0.80319032  0.31746076    -0.18100
C517        C  0.49606018  0.80661146  0.18981794    -0.18100
C518        C  0.49941901  0.69399514  0.18563860    -0.18100
C519        C  0.50135267  0.69045156  0.31413225    -0.18100
H520        H  0.52352513  0.86168831  0.28797557     0.14800
H521        H  0.51874634  0.86339111  0.21911810     0.14800
H522        H  0.51543617  0.63180881  0.28214628     0.14800
H523        H  0.51518405  0.63393817  0.21299742     0.14800
H524        H  0.49853292  0.77600742  0.38573428     0.13000
H525        H  0.49599072  0.71497149  0.38392651     0.13000
H526        H  0.47829692  0.78234402  0.12253480     0.13000
H527        H  0.48105842  0.72121542  0.12002244     0.13000
H528        H  0.48932538  0.77437359  0.25361544     0.26300
H529        H  0.49170703  0.72356730  0.25126853     0.26300
N530        N  0.20093137  0.00127753  0.25358280    -0.36500
N531        N  0.24993003  0.99409040  0.30640157    -0.57000
N532        N  0.29678779  0.00190941  0.25158801    -0.36500
N533        N  0.24788034  0.00428042  0.19847210    -0.57000
C534        C  0.18353373  0.99491625  0.28223303     0.27100
C535        C  0.18256053  0.99731770  0.22511046     0.27100
C536        C  0.31528988  0.99377110  0.27879984     0.27100
C537        C  0.31425380  0.00022384  0.22215220     0.27100
C538        C  0.22520557  0.99716034  0.32808723     0.35700
C539        C  0.27561524  0.99540944  0.32684137     0.35700
C540        C  0.22222083  0.00730084  0.17826054     0.35700
C541        C  0.27257223  0.00983382  0.17746475     0.35700
C542        C  0.15345173  0.98749472  0.27194980    -0.21700
C543        C  0.15287617  0.98885614  0.23590293    -0.21700
C544        C  0.34509250  0.98738204  0.26660121    -0.21700
C545        C  0.34445990  0.99147719  0.23087327    -0.21700
C546        C  0.23520773  0.99970182  0.36258611    -0.22800
C547        C  0.26716262  0.99850463  0.36180195    -0.22800
C548        C  0.23067471  0.01439412  0.14402869    -0.22800
C549        C  0.26259041  0.01613157  0.14356046    -0.22800
C550        C  0.19365902  0.99663571  0.31748435    -0.18100
C551        C  0.19134535  0.00220794  0.18972836    -0.18100
C552        C  0.30407064  0.00697549  0.18767482    -0.18100
C553        C  0.30663329  0.99352485  0.31456677    -0.18100
H554        H  0.13391807  0.98161872  0.28865826     0.14800
H555        H  0.13276440  0.98435230  0.21955010     0.14800
H556        H  0.36528666  0.98060938  0.28186657     0.14800
H557        H  0.36410966  0.98840218  0.21336318     0.14800
H558        H  0.22097343  0.00214080  0.38590644     0.13000
H559        H  0.28242084  0.99993080  0.38437340     0.13000
H560        H  0.21547126  0.01771640  0.12164695     0.13000
H561        H  0.27683843  0.02091672  0.12072822     0.13000
H562        H  0.22358770  0.00926849  0.25374289     0.26300
H563        H  0.27402894  0.00964787  0.25317068     0.26300
C564        C  0.13615428  0.53178745  0.12050873    -0.12100
C565        C  0.12806875  0.50298098  0.10562252     0.04900
C566        C  0.13698252  0.97080662  0.12060807    -0.07400
C567        C  0.15958180  0.97265024  0.14697354    -0.08200
C568        C  0.16661972  0.00100845  0.16270158    -0.02700
C569        C  0.15939523  0.53380595  0.14629854     0.04100
N570        N  0.16684167  0.56324935  0.16130261     0.66600
H571        H  0.12405381  0.55276329  0.11260092     0.15500
H572        H  0.17195296  0.95185389  0.15503690     0.15200
N573        N  0.13102917  0.94122198  0.10534082     0.74300
O574        O  0.18656993  0.58047348  0.14639152    -0.39100
O575        O  0.15769344  0.56973914  0.19193544    -0.39100
O576        O  0.14621389  0.93300486  0.07851210    -0.39800
O577        O  0.11786108  0.92080959  0.12377590    -0.39800
C578        C  0.12474018  0.52148001  0.37101188    -0.12100
C579        C  0.12213041  0.99645303  0.39643632     0.04900
C580        C  0.13665369  0.96843953  0.38568613    -0.07400
C581        C  0.16023717  0.96904640  0.36037911    -0.08200
C582        C  0.16946062  0.99700180  0.34509717    -0.02700
C583        C  0.14802758  0.52261187  0.34522532     0.04100
N584        N  0.15274806  0.55061945  0.32582537     0.66600
H585        H  0.11079900  0.54204672  0.37580393     0.15500
H586        H  0.17120761  0.94752225  0.35226430     0.15200
N587        N  0.12779992  0.93909257  0.39992395     0.74300
O588        O  0.13785232  0.55518930  0.29770825    -0.39100
O589        O  0.17488553  0.56844192  0.33389616    -0.39100
O590        O  0.10805296  0.92281632  0.38379156    -0.39800
O591        O  0.14451765  0.92667578  0.42333920    -0.39800
C592        C  0.36833786  0.03255642  0.12599375    -0.12100
C593        C  0.38036145  0.50158374  0.11145339     0.04900
C594        C  0.35987200  0.47644322  0.11726443    -0.07400
C595        C  0.33771342  0.47813892  0.14405235    -0.08200
C596        C  0.32791638  0.00708146  0.15978026    -0.02700
C597        C  0.34449066  0.03406626  0.15110054     0.04100
N598        N  0.33733979  0.06292067  0.16778828     0.66600
H599        H  0.38100334  0.05350156  0.11950404     0.15500
H600        H  0.32162148  0.45908243  0.14784769     0.15200
N601        N  0.35990439  0.44979596  0.09498636     0.74300
O602        O  0.35065354  0.06994367  0.19621931    -0.39100
O603        O  0.33447685  0.57688121  0.17595851    -0.39100
O604        O  0.38111438  0.92810487  0.11845873    -0.39800
O605        O  0.34404620  0.45024816  0.06708177    -0.39800
C606        C  0.34626746  0.02207770  0.34848876    -0.12100
C607        C  0.33209880  0.99377516  0.34069804     0.04900
C608        C  0.34328679  0.96631639  0.35617132    -0.07400
C609        C  0.36752219  0.96777950  0.38073522    -0.08200
C610        C  0.38125941  0.99637682  0.38959765    -0.02700
C611        C  0.37104902  0.02358358  0.37218316     0.04100
N612        N  0.38636262  0.05266907  0.37692854     0.66600
H613        H  0.33841166  0.04306253  0.33543498     0.15500
H614        H  0.36584856  0.45105324  0.40709204     0.15200
N615        N  0.33079973  0.93686931  0.34637353     0.74300
O616        O  0.41132329  0.05792870  0.36043336    -0.39100
O617        O  0.37917777  0.57661032  0.39058697    -0.39100
O618        O  0.34282602  0.92201528  0.32121451    -0.39800
O619        O  0.29524723  0.43706541  0.37724593    -0.39800
C620        C  0.02793116  0.64206410  0.11104761    -0.12100
C621        C  0.00089636  0.62441832  0.10540049     0.04900
C622        C  0.47218796  0.62782347  0.12796932    -0.07400
C623        C  0.47295553  0.65126394  0.15341942    -0.08200
C624        C  0.49922699  0.67015565  0.15732727    -0.02700
C625        C  0.02833713  0.66611693  0.13582246     0.04100
N626        N  0.05649189  0.68305102  0.14117125     0.66600
H627        H  0.04893076  0.63721387  0.09618349     0.15500
H628        H  0.45293156  0.65472527  0.17036010     0.15200
N629        N  0.44470756  0.60937803  0.12504392     0.74300
O630        O  0.07765692  0.67148350  0.16015630    -0.39100
O631        O  0.06300192  0.70525545  0.12084797    -0.39100
O632        O  0.44125177  0.58635333  0.14514560    -0.39800
O633        O  0.42141782  0.62004498  0.10870891    -0.39800
C634        C  0.02557707  0.65021712  0.34738963    -0.12100
C635        C  0.50155450  0.66529850  0.34096013     0.04900
C636        C  0.47369197  0.65402717  0.35566275    -0.07400
C637        C  0.47472613  0.63099664  0.38161402    -0.08200
C638        C  0.50327531  0.61908113  0.39386696    -0.02700
C639        C  0.02711067  0.62600732  0.37190431     0.04100
N640        N  0.05677970  0.61223164  0.37902683     0.66600
H641        H  0.04681787  0.65830986  0.33501581     0.15500
H642        H  0.45295316  0.62289483  0.39270247     0.15200
N643        N  0.44418460  0.66639993  0.34521834     0.74300
O644        O  0.06642117  0.59048578  0.35965493    -0.39100
O645        O  0.07592264  0.62640333  0.39832243    -0.39100
O646        O  0.42684901  0.65072830  0.32526545    -0.39800
O647        O  0.43279117  0.68906544  0.36185067    -0.39800
C648        C  0.47452875  0.87745939  0.13495316    -0.12100
C649        C  0.99603895  0.88078011  0.11403435     0.04900
C650        C  0.02241293  0.86327608  0.12449368    -0.07400
C651        C  0.01941141  0.84029140  0.15011405    -0.08200
C652        C  0.49658331  0.83166618  0.16292809    -0.02700
C653        C  0.47315694  0.85464259  0.16110347     0.04100
N654        N  0.44797938  0.85525627  0.18567998     0.66600
H655        H  0.45620066  0.89479863  0.13365151     0.15500
H656        H  0.03969162  0.82672285  0.15758377     0.15200
N657        N  0.05246566  0.86808593  0.10945614     0.74300
O658        O  0.42169007  0.84502483  0.17653780    -0.39100
O659        O  0.44982040  0.87263413  0.21224404    -0.39100
O660        O  0.07416941  0.87729614  0.12911491    -0.39800
O661        O  0.05926031  0.85479197  0.08094271    -0.39800
C662        C  0.47626624  0.83809319  0.35740321    -0.12100
C663        C  0.50515792  0.82748063  0.34518056     0.04900
C664        C  0.02572506  0.83902181  0.35997431    -0.07400
C665        C  0.02571442  0.86267525  0.38526692    -0.08200
C666        C  0.50187333  0.87542654  0.39580904    -0.02700
C667        C  0.47432344  0.86160648  0.38265858     0.04100
N668        N  0.44415249  0.87069626  0.39486344     0.66600
H669        H  0.45501279  0.82793633  0.34726169     0.15500
H670        H  0.04778883  0.87245869  0.39341324     0.15200
N671        N  0.05471089  0.82831035  0.34597835     0.74300
O672        O  0.42856735  0.89032605  0.37755104    -0.39100
O673        O  0.43063815  0.85440161  0.41780010    -0.39100
O674        O  0.06866428  0.84432781  0.32313747    -0.39800
O675        O  0.06902893  0.80647686  0.36116386    -0.39100
N676        N  0.43287564  0.51333629  0.96087385    -0.06000
N677        N  0.41351056  0.52326600  0.93635124    -0.58100
N678        N  0.43257424  0.98383269  0.54092961    -0.05700
N679        N  0.41474711  0.97288959  0.56629083    -0.60200
N680        N  0.43455724  0.51431025  0.54487696    -0.05200
N681        N  0.41664193  0.52434999  0.57080428    -0.58100
N682        N  0.43113657  0.98495793  0.96402221    -0.04900
N683        N  0.41246247  0.97380474  0.93965750    -0.60600
C684        C  0.40173369  0.99938164  0.92291254     0.96200
C685        C  0.40618907  0.49791756  0.58617191     0.96000
N686        N  0.01386017  0.93342150  0.54562951    -0.06200
N687        N  0.02371274  0.91548920  0.57159283    -0.58700
N688        N  0.48176270  0.93290713  0.96420776    -0.04300
N689        N  0.47015326  0.91493795  0.93943166    -0.59900
N690        N  0.01250558  0.92939814  0.96312328    -0.06200
N691        N  0.02227595  0.90896281  0.93973259    -0.58900
N692        N  0.48533188  0.93308296  0.54188478    -0.03900
N693        N  0.47446861  0.91473602  0.56669487    -0.60000
Mn694      Mn  0.45859174  0.95744733  0.50111091     1.18400
C695        C  0.99706449  0.90509923  0.58667774     0.98300
C696        C  0.49567892  0.90351433  0.92300016     0.99000
N697        N  0.48657677  0.56578835  0.54460456    -0.06200
N698        N  0.47572651  0.58443740  0.56928685    -0.62500
N699        N  0.01614540  0.56440915  0.95943028    -0.05000
N700        N  0.02661236  0.58179269  0.93342791    -0.63200
N701        N  0.48537797  0.56573922  0.95948701    -0.05700
N702        N  0.47505976  0.58563026  0.93572252    -0.62800
N703        N  0.01484471  0.56624441  0.53987042    -0.04600
N704        N  0.02493005  0.58632435  0.56352624    -0.63500
Mn705      Mn  0.45839237  0.54090368  0.00024984     1.10700
C706        C  0.99843109  0.59833708  0.57769736     0.99500
C707        C  0.50137792  0.59779194  0.92167035     0.99600
N708        N  0.06590981  0.98055805  0.96103471    -0.05700
N709        N  0.08394748  0.96916128  0.93600826    -0.61100
N710        N  0.06770292  0.51302563  0.54079173    -0.05000
N711        N  0.08788890  0.52344167  0.56421168    -0.57800
N712        N  0.06648594  0.98537882  0.54443683    -0.06300
N713        N  0.08643611  0.97550916  0.56842290    -0.60700
N714        N  0.06754176  0.51212822  0.96043981    -0.05300
N715        N  0.08457244  0.52171251  0.93367702    -0.57800
Mn716      Mn  0.04122154  0.95749734  0.50478604     1.20200
Mn717      Mn  0.04330614  0.54058166  0.00030318     1.10100
Cl718      Cl  0.99946672  0.49788600  0.50155356    -0.85800
C719        C  0.09555813  0.99465386  0.91986693     0.96500
C720        C  0.09990372  0.49731868  0.57891128     0.96300
N721        N  0.49265318  0.79922105  0.75295108    -0.36500
N722        N  0.49878416  0.75134583  0.80692235    -0.57000
N723        N  0.49778007  0.70360888  0.75221394    -0.36500
N724        N  0.49690867  0.75156628  0.69811639    -0.57000
C725        C  0.49806692  0.81724410  0.78135433     0.27100
C726        C  0.49546093  0.81740671  0.72418835     0.27100
C727        C  0.50384187  0.68605432  0.78092449     0.27100
C728        C  0.50486572  0.68634834  0.72356092     0.27100
C729        C  0.49550588  0.77635773  0.82801221     0.35700
C730        C  0.49603593  0.72606704  0.82771425     0.35700
C731        C  0.49059602  0.77652202  0.67773508     0.35700
C732        C  0.49502300  0.72630972  0.67714961     0.35700
C733        C  0.50367687  0.84745699  0.77051372    -0.21700
C734        C  0.50202986  0.84756925  0.73450415    -0.21700
C735        C  0.51449897  0.65710599  0.77040921    -0.21700
C736        C  0.51528329  0.65733729  0.73429351    -0.21700
C737        C  0.49131836  0.76693384  0.86250573    -0.22800
C738        C  0.49145823  0.73509006  0.86229301    -0.22800
C739        C  0.48502779  0.76709978  0.64351009    -0.22800
C740        C  0.48773838  0.73531582  0.64316353    -0.22800
C741        C  0.49705851  0.80763551  0.81688848    -0.18100
C742        C  0.49181108  0.80785147  0.68886507    -0.18100
C743        C  0.50083716  0.69533597  0.68795547    -0.18100
C744        C  0.49919214  0.69495568  0.81637527    -0.18100
H745        H  0.50848819  0.86742291  0.78682691     0.14800
H746        H  0.50536698  0.86765837  0.71784990     0.14800
H747        H  0.52115075  0.63780477  0.78704150     0.14800
H748        H  0.52258775  0.63820822  0.71780230     0.14800
H749        H  0.48840530  0.78147313  0.88544071     0.13000
H750        H  0.48879197  0.72029415  0.88508074     0.13000
H751        H  0.47973248  0.78164436  0.62107864     0.13000
H752        H  0.48484956  0.72055954  0.62042809     0.13000
H753        H  0.48628030  0.77612995  0.75313255     0.26300
H754        H  0.48777410  0.72547173  0.75229105     0.26300
N755        N  0.20264898  0.00488630  0.75088765    -0.36500
N756        N  0.24887440  0.99578806  0.80631832    -0.57000
N757        N  0.29837760  0.99967329  0.75383581    -0.36500
N758        N  0.25212686  0.00412334  0.69819701    -0.57000
C759        C  0.18393254  0.99738389  0.77817390     0.27100
C760        C  0.18559227  0.00188461  0.72125648     0.27100
C761        C  0.31529282  0.99257772  0.78263569     0.27100
C762        C  0.31698069  0.99535514  0.72561308     0.27100
C763        C  0.22320118  0.99950621  0.82642015     0.35700
C764        C  0.27359688  0.99825880  0.82806191     0.35700
C765        C  0.22771615  0.00980005  0.67675342     0.35700
C766        C  0.27807604  0.00664983  0.67833684     0.35700
C767        C  0.15442912  0.99022456  0.76583366    -0.21700
C768        C  0.15544281  0.99311173  0.72995639    -0.21700
C769        C  0.34522310  0.98401489  0.77268083    -0.21700
C770        C  0.34627580  0.98571942  0.73668181    -0.21700
C771        C  0.23159677  0.00370747  0.86123470    -0.22800
C772        C  0.26356944  0.00302554  0.86226045    -0.22800
C773        C  0.23815611  0.01560039  0.64292458    -0.22800
C774        C  0.27007836  0.01360591  0.64392281    -0.22800
C775        C  0.19223703  0.99800334  0.81405303    -0.18100
C776        C  0.19607872  0.00740772  0.68657388    -0.18100
C777        C  0.30879726  0.00110685  0.69025462    -0.18100
C778        C  0.30508878  0.99523510  0.81776308    -0.18100
H779        H  0.13421254  0.98361404  0.78109444     0.14800
H780        H  0.13609481  0.98910642  0.71232050     0.14800
H781        H  0.36440334  0.97740306  0.78960678     0.14800
H782        H  0.36645721  0.98072703  0.72055108     0.14800
H783        H  0.21629096  0.00701311  0.88353826     0.13000
H784        H  0.27779468  0.00560085  0.88554170     0.13000
H785        H  0.22420880  0.02027036  0.61981807     0.13000
H786        H  0.28558577  0.01652962  0.62173793     0.13000
H787        H  0.22529568  0.01292619  0.75251935     0.26300
H788        H  0.27600638  0.00859764  0.75370805     0.26300
C789        C  0.13594034  0.52494538  0.61997661    -0.12100
C790        C  0.12561268  0.49686031  0.60519393     0.04900
C791        C  0.14036936  0.97616403  0.61914895    -0.07400
C792        C  0.16441846  0.97835002  0.64368407    -0.08200
C793        C  0.17242038  0.00688561  0.65834774    -0.02700
C794        C  0.15995902  0.52525073  0.64495371     0.04100
N795        N  0.16952409  0.55399013  0.66013054     0.66600
H796        H  0.12511357  0.54671480  0.61250066     0.15500
H797        H  0.17659540  0.95749164  0.65192069     0.15200
N798        N  0.13316117  0.94628040  0.60538973     0.74300
O799        O  0.19231515  0.56841022  0.64707413    -0.39100
O800        O  0.15929970  0.56175322  0.68994279    -0.39100
O801        O  0.14969146  0.93524649  0.58097531    -0.39800
O802        O  0.11632851  0.92828719  0.62326143    -0.39800
C803        C  0.12661862  0.52243065  0.87322815    -0.12100
C804        C  0.11905598  0.99432377  0.89119853     0.04900
C805        C  0.13530360  0.96704588  0.88124395    -0.07400
C806        C  0.15908268  0.96865660  0.85610953    -0.08200
C807        C  0.16676194  0.99690804  0.84027070    -0.02700
C808        C  0.14962092  0.52295705  0.84715658     0.04100
N809        N  0.15830692  0.55180069  0.83144963     0.66600
H810        H  0.11630489  0.54419856  0.88153213     0.15500
H811        H  0.17174307  0.94778368  0.84899094     0.15200
N812        N  0.12854050  0.93763841  0.89675797     0.74300
O813        O  0.14644984  0.55975673  0.80246451    -0.39100
O814        O  0.18103845  0.56684612  0.84362894    -0.39100
O815        O  0.11196274  0.91848391  0.88015481    -0.39800
O816        O  0.14446816  0.92838590  0.92260635    -0.39800
C817        C  0.37345922  0.02619357  0.62883866    -0.12100
C818        C  0.38304253  0.49675828  0.61507247     0.04900
C819        C  0.36674097  0.46910288  0.62328251    -0.07400
C820        C  0.34361699  0.46935754  0.64906496    -0.08200
C821        C  0.33401604  0.00033048  0.66376623    -0.02700
C822        C  0.35078939  0.02723966  0.65527467     0.04100
N823        N  0.34458272  0.05578755  0.67304951     0.66600
H824        H  0.38587371  0.04725473  0.62224078     0.15500
H825        H  0.33070584  0.44831430  0.65453114     0.15200
N826        N  0.37211048  0.44085315  0.60461483     0.74300
O827        O  0.35736225  0.06109498  0.70226614    -0.39100
O828        O  0.32490843  0.56955163  0.66812709    -0.39100
O829        O  0.38271180  0.92070970  0.61831936    -0.39800
O830        O  0.35608349  0.43501459  0.57765128    -0.39800
C831        C  0.34572766  0.02359555  0.85052293    -0.12100
C832        C  0.32935106  0.99600502  0.84524182     0.04900
C833        C  0.33752604  0.96925421  0.86423788    -0.07400
C834        C  0.36143458  0.97069604  0.88913124    -0.08200
C835        C  0.37773393  0.99852465  0.89502389    -0.02700
C836        C  0.37005639  0.02501312  0.87482676     0.04100
N837        N  0.38772643  0.05297535  0.87713864     0.66600
H838        H  0.34005462  0.04393665  0.83497934     0.15500
H839        H  0.36335531  0.44854496  0.90824167     0.15200
N840        N  0.32250667  0.94032633  0.85744733     0.74300
O841        O  0.41172583  0.05602318  0.85827883    -0.39100
O842        O  0.37673466  0.57293330  0.89361802    -0.39100
O843        O  0.33300469  0.92264061  0.83381917    -0.39800
O844        O  0.29262094  0.43468049  0.88306525    -0.39800
C845        C  0.02565346  0.63616052  0.61661594    -0.12100
C846        C  0.99748078  0.62363475  0.60430142     0.04900
C847        C  0.47596434  0.62507748  0.63504531    -0.07400
C848        C  0.47637390  0.64942599  0.65944255    -0.08200
C849        C  0.50134267  0.67029273  0.66084278    -0.02700
C850        C  0.02587534  0.65987463  0.64179683     0.04100
N851        N  0.05504072  0.67103400  0.65460125     0.66600
H852        H  0.04772392  0.62725078  0.60705931     0.15500
H853        H  0.45698772  0.65213166  0.67746590     0.15200
N854        N  0.44991754  0.60448699  0.63500157     0.74300
O855        O  0.06746720  0.65800032  0.68080617    -0.39100
O856        O  0.07123339  0.68869689  0.63551093    -0.39100
O857        O  0.44760789  0.58432032  0.65891136    -0.39800
O858        O  0.42624369  0.61120817  0.61682053    -0.39800
C859        C  0.02432081  0.65365953  0.85057178    -0.12100
C860        C  0.49958963  0.67017182  0.84354497     0.04900
C861        C  0.47335446  0.65136942  0.84947290    -0.07400
C862        C  0.47457062  0.62785064  0.87480586    -0.08200
C863        C  0.50160838  0.62275613  0.89480673    -0.02700
C864        C  0.02686381  0.63021292  0.87586632     0.04100
N865        N  0.05716560  0.62246919  0.88879938     0.66600
H866        H  0.04519818  0.66518967  0.84132315     0.15500
H867        H  0.45412943  0.61358366  0.87890508     0.15200
N868        N  0.44505161  0.65642431  0.83054823     0.74300
O869        O  0.07421352  0.60419178  0.87137580    -0.39100
O870        O  0.06931848  0.63914664  0.91228104    -0.39100
O871        O  0.43742143  0.63786210  0.80646898    -0.39800
O872        O  0.42500830  0.67506976  0.84262097    -0.39800
C873        C  0.47039821  0.87361331  0.62682936    -0.12100
C874        C  0.99525833  0.88168123  0.61528215     0.04900
C875        C  0.02197127  0.86966590  0.63232864    -0.07400
C876        C  0.01894414  0.84589877  0.65710971    -0.08200
C877        C  0.49343565  0.83223653  0.66144306    -0.02700
C878        C  0.46735120  0.85028415  0.65215139     0.04100
N879        N  0.43767035  0.84518514  0.66813556     0.66600
H880        H  0.44991281  0.88700197  0.61974004     0.15500
H881        H  0.03963530  0.83669418  0.66978705     0.15200
N882        N  0.05226741  0.88190418  0.62591546     0.74300
O883        O  0.41916233  0.82591667  0.65459485    -0.39100
O884        O  0.42748594  0.86443188  0.69033674    -0.39100
O885        O  0.06330390  0.90114230  0.64747585    -0.39800
O886        O  0.07049930  0.86760771  0.60550577    -0.39800
C887        C  0.46839173  0.84556757  0.85402515    -0.12100
C888        C  0.49685930  0.83220866  0.84411724     0.04900
C889        C  0.02372215  0.83650998  0.86151846    -0.07400
C890        C  0.02311877  0.86006710  0.88675200    -0.08200
C891        C  0.49518745  0.87988325  0.89478372    -0.02700
C892        C  0.46725852  0.86929471  0.87909723     0.04100
N893        N  0.43764612  0.88249817  0.88780848     0.66600
H894        H  0.44694766  0.83756948  0.84207305     0.15500
H895        H  0.04508635  0.86899070  0.89640211     0.15200
N896        N  0.05308845  0.82486574  0.84964075     0.74300
O897        O  0.42655607  0.90387054  0.86882641    -0.39100
O898        O  0.41997644  0.86843041  0.90896574    -0.39100
O899        O  0.06734077  0.83895859  0.82544945    -0.39800
O900        O  0.06766855  0.80547205  0.86834762    -0.39100
N901        N  0.93236598  0.01423458  0.46087830    -0.06000
N902        N  0.91333217  0.02472711  0.43638679    -0.58100
N903        N  0.93485368  0.48549645  0.04503363    -0.05700
N904        N  0.91698584  0.47501300  0.07046675    -0.60200
N905        N  0.93217968  0.01628713  0.04072898    -0.05200
N906        N  0.91468802  0.02790280  0.06608615    -0.58100
N907        N  0.93145756  0.48206715  0.46283621    -0.04900
N908        N  0.91246019  0.47078800  0.43881182    -0.60600
C909        C  0.90129896  0.49632775  0.42228921     0.96200
C910        C  0.90400194  0.00248648  0.08317388     0.96000
N911        N  0.51587825  0.43307322  0.04425194    -0.06200
N912        N  0.52651805  0.41479175  0.06942591    -0.58700
N913        N  0.98257527  0.42984931  0.46409578    -0.04300
N914        N  0.97077747  0.41045572  0.44090516    -0.59900
N915        N  0.51503759  0.43193849  0.46148741    -0.06200
N916        N  0.52466104  0.41302494  0.43645741    -0.58900
N917        N  0.98619115  0.43424562  0.04673718    -0.03900
N918        N  0.97495382  0.41733386  0.07258472    -0.60000
Mn919      Mn  0.95919214  0.45789561  0.00563528     1.18400
C920        C  0.50033757  0.40422609  0.08519708     0.98300
C921        C  0.99608079  0.39790965  0.42519612     0.99000
N922        N  0.98447646  0.06698947  0.03867035    -0.06200
N923        N  0.97343882  0.08703763  0.06171723    -0.62500
N924        N  0.51382511  0.06738707  0.46018010    -0.05000
N925        N  0.52412320  0.08634556  0.43550013    -0.63200
N926        N  0.98430055  0.06542809  0.46026836    -0.05700
N927        N  0.97367510  0.08268018  0.43428837    -0.62800
N928        N  0.51519000  0.06779402  0.04156642    -0.04600
N929        N  0.52543367  0.08725940  0.06577414    -0.63500
Mn930      Mn  0.95710278  0.04139790  0.50082309     1.10700
C931        C  0.49900774  0.09910657  0.08026620     0.99500
C932        C  0.99973034  0.09343662  0.41844524     0.99600
N933        N  0.56778086  0.48326404  0.46134088    -0.05700
N934        N  0.58563171  0.47270156  0.43575452    -0.61100
N935        N  0.56710124  0.01433845  0.04165176    -0.05000
N936        N  0.58702669  0.02471441  0.06520229    -0.57800
N937        N  0.56861341  0.48408912  0.04159269    -0.06300
N938        N  0.58891014  0.47396925  0.06509981    -0.60700
N939        N  0.56673207  0.01588717  0.46062174    -0.05300
N940        N  0.58487160  0.02630667  0.43514407    -0.57800
Mn941      Mn  0.54213405  0.45673690  0.00280974     1.20200
Mn942      Mn  0.54071735  0.04269509  0.50080398     1.10100
Cl943      Cl  0.49912209  0.00001647  0.00273386    -0.85800
C944        C  0.59725702  0.49863580  0.42066991     0.96500
C945        C  0.59864019  0.99860778  0.08013162     0.96300
N946        N  0.99521669  0.29574686  0.25407461    -0.36500
N947        N  0.99389393  0.24630806  0.30598695    -0.57000
N948        N  0.99833612  0.20032537  0.24923484    -0.36500
N949        N  0.99462300  0.24976774  0.19718404    -0.57000
C950        C  0.99017909  0.31253890  0.28354558     0.27100
C951        C  0.98893027  0.31433053  0.22633108     0.27100
C952        C  0.99258113  0.18145542  0.27686869     0.27100
C953        C  0.99484151  0.18330814  0.21966325     0.27100
C954        C  0.99723402  0.27057257  0.32812926     0.35700
C955        C  0.99687567  0.22034223  0.32560287     0.35700
C956        C  0.99722581  0.27592557  0.17779241     0.35700
C957        C  0.00041595  0.22571669  0.17530699     0.35700
C958        C  0.98095011  0.34234469  0.27438997    -0.21700
C959        C  0.98002392  0.34343318  0.23832755    -0.21700
C960        C  0.98581630  0.15189636  0.26470945    -0.21700
C961        C  0.98726988  0.15305707  0.22866183    -0.21700
C962        C  0.00175921  0.25997829  0.36212735    -0.22800
C963        C  0.00144239  0.22816647  0.36055395    -0.22800
C964        C  0.00417690  0.26841171  0.14325109    -0.22800
C965        C  0.00618635  0.23662585  0.14168327    -0.22800
C966        C  0.99476101  0.30216668  0.31845769    -0.18100
C967        C  0.99276273  0.30650402  0.19047949    -0.18100
C968        C  0.99914619  0.19397244  0.18479633    -0.18100
C969        C  0.99463320  0.18961989  0.31280955    -0.18100
H970        H  0.97549566  0.36140894  0.29184075     0.14800
H971        H  0.97378108  0.36351319  0.22270386     0.14800
H972        H  0.98048264  0.13151533  0.28019709     0.14800
H973        H  0.98321603  0.13375948  0.21110119     0.14800
H974        H  0.00470521  0.27371989  0.38566052     0.13000
H975        H  0.00419803  0.21258857  0.38266608     0.13000
H976        H  0.00747525  0.28417927  0.12142493     0.13000
H977        H  0.01126588  0.22309457  0.11843276     0.13000
H978        H  0.00418433  0.27349199  0.25289788     0.26300
H979        H  0.00572714  0.22308429  0.25055783     0.26300
N980        N  0.70292052  0.50595863  0.24961415    -0.36500
N981        N  0.74834598  0.49712467  0.30568021    -0.57000
N982        N  0.79817371  0.49939753  0.25408331    -0.36500
N983        N  0.75276408  0.50383122  0.19790169    -0.57000
C984        C  0.68399499  0.49948069  0.27701369     0.27100
C985        C  0.68633805  0.50107858  0.21995960     0.27100
C986        C  0.81379196  0.48911714  0.28258273     0.27100
C987        C  0.81629665  0.49356129  0.22587914     0.27100
C988        C  0.72289941  0.50354952  0.32522247     0.35700
C989        C  0.77304777  0.49913877  0.32749641     0.35700
C990        C  0.72861483  0.51017874  0.17635505     0.35700
C991        C  0.77892053  0.50879076  0.17907969     0.35700
C992        C  0.65482472  0.49103168  0.26471703    -0.21700
C993        C  0.65632422  0.49194203  0.22868363    -0.21700
C994        C  0.84226967  0.47669725  0.27244884    -0.21700
C995        C  0.84385447  0.47949641  0.23653659    -0.21700
C996        C  0.73139742  0.50912466  0.35977129    -0.22800
C997        C  0.76327009  0.50639854  0.36119105    -0.22800
C998        C  0.73941636  0.51884577  0.14348182    -0.22800
C999        C  0.77138680  0.51815789  0.14526943    -0.22800
C1000       C  0.69197153  0.50221545  0.31281486    -0.18100
C1001       C  0.69703152  0.50599851  0.18529169    -0.18100
C1002       C  0.80932490  0.50224604  0.19108809    -0.18100
C1003       C  0.80412754  0.49306939  0.31762961    -0.18100
H1004       H  0.63453740  0.48486453  0.28009402     0.14800
H1005       H  0.63735533  0.48668116  0.21095061     0.14800
H1006       H  0.86020039  0.46703473  0.28925101     0.14800
H1007       H  0.86323538  0.47234673  0.22019224     0.14800
H1008       H  0.71619888  0.51437426  0.38168830     0.13000
H1009       H  0.77756442  0.50913295  0.38439456     0.13000
H1010       H  0.72569707  0.52472422  0.12055233     0.13000
H1011       H  0.78724645  0.52326009  0.12392392     0.13000
H1012       H  0.72535061  0.51470756  0.25121843     0.26300
H1013       H  0.77739793  0.51178017  0.25411213     0.26300
C1014       C  0.63917036  0.02657778  0.11413014    -0.12100
C1015       C  0.62381913  0.99853015  0.10667161     0.04900
C1016       C  0.64442276  0.47483143  0.11427915    -0.07400
C1017       C  0.66771909  0.47697698  0.13985911    -0.08200
C1018       C  0.67374152  0.50513973  0.15666645    -0.02700
C1019       C  0.66318183  0.02765818  0.13885656     0.04100
N1020       N  0.67838818  0.05643677  0.14592263     0.66600
H1021       H  0.63261334  0.04779438  0.10070553     0.15500
H1022       H  0.68112689  0.45650690  0.14680447     0.15200
N1023       N  0.64015641  0.44581654  0.09690029     0.74300
O1024       O  0.70296271  0.06339762  0.12951985    -0.39100
O1025       O  0.66982050  0.07272225  0.17171453    -0.39100
O1026       O  0.65672645  0.43940668  0.07048058    -0.39800
O1027       O  0.62572858  0.42434249  0.11241355    -0.39800
C1028       C  0.63309512  0.02793105  0.38001915    -0.12100
C1029       C  0.62043628  0.49882871  0.39168516     0.04900
C1030       C  0.63566311  0.47140749  0.38024950    -0.07400
C1031       C  0.65861366  0.47302250  0.35426905    -0.08200
C1032       C  0.66659029  0.50139598  0.33904398    -0.02700
C1033       C  0.65656398  0.02829170  0.35441362     0.04100
N1034       N  0.67051885  0.05706716  0.34447926     0.66600
H1035       H  0.62604024  0.04966502  0.39192682     0.15500
H1036       H  0.67059101  0.45202781  0.34616626     0.15200
N1037       N  0.62891115  0.44179928  0.39527207     0.74300
O1038       O  0.65950603  0.07226385  0.31896974    -0.39100
O1039       O  0.69648490  0.06468864  0.35735462    -0.39100
O1040       O  0.61288710  0.42262414  0.37802110    -0.39800
O1041       O  0.64467335  0.43239362  0.42118121    -0.39800
C1042       C  0.87886971  0.52630038  0.13622074    -0.12100
C1043       C  0.88114044  0.00335231  0.11222239     0.04900
C1044       C  0.87468761  0.97673660  0.13275017    -0.07400
C1045       C  0.85104157  0.97771249  0.15787607    -0.08200
C1046       C  0.83487860  0.50193578  0.16516663    -0.02700
C1047       C  0.85578527  0.52686268  0.16225514     0.04100
N1048       N  0.85379906  0.55265654  0.18571427     0.66600
H1049       H  0.89452369  0.54584323  0.13367881     0.15500
H1050       H  0.84593780  0.95712218  0.17319450     0.15200
N1051       N  0.89207603  0.94861490  0.12886128     0.74300
O1052       O  0.86985179  0.55266460  0.21348260    -0.39100
O1053       O  0.80000636  0.06609049  0.13215135    -0.39100
O1054       O  0.87793155  0.42442303  0.10768489    -0.39800
O1055       O  0.88105189  0.92693664  0.11046205    -0.39800
C1056       C  0.84644536  0.52023049  0.34867560    -0.12100
C1057       C  0.82860257  0.49338317  0.34486363     0.04900
C1058       C  0.83502351  0.46722881  0.36569128    -0.07400
C1059       C  0.85912947  0.46841140  0.39043447    -0.08200
C1060       C  0.87696340  0.49553429  0.39474496    -0.02700
C1061       C  0.87050041  0.52157320  0.37328829     0.04100
N1062       N  0.88863369  0.54925503  0.37526990     0.66600
H1063       H  0.84178462  0.54021585  0.33214328     0.15500
H1064       H  0.87839906  0.94877909  0.38755720     0.15200
N1065       N  0.81754281  0.43930979  0.36149093     0.74300
O1066       O  0.91155564  0.55258362  0.35484104    -0.39100
O1067       O  0.85356666  0.06796678  0.42133052    -0.39100
O1068       O  0.82505350  0.42018398  0.33786871    -0.39800
O1069       O  0.81309128  0.92456320  0.35382731    -0.39800
C1070       C  0.52643117  0.13485882  0.12137131    -0.12100
C1071       C  0.49819511  0.12358410  0.10777119     0.04900
C1072       C  0.97140080  0.14070528  0.11241228    -0.07400
C1073       C  0.97226726  0.16388782  0.13813312    -0.08200
C1074       C  0.99981616  0.17038653  0.15630747    -0.02700
C1075       C  0.52674911  0.15798249  0.14721123     0.04100
N1076       N  0.55595849  0.16913504  0.15990956     0.66600
H1077       H  0.54845887  0.12576064  0.11191478     0.15500
H1078       H  0.95117148  0.17668300  0.14431272     0.15200
N1079       N  0.94252249  0.13504794  0.09490573     0.74300
O1080       O  0.56920743  0.15526724  0.18502835    -0.39100
O1081       O  0.57124176  0.18824047  0.14166035    -0.39100
O1082       O  0.92196018  0.11888193  0.10991440    -0.39800
O1083       O  0.93513292  0.15135717  0.06863094    -0.39800
C1084       C  0.52096110  0.15476558  0.34878016    -0.12100
C1085       C  0.99556341  0.16405627  0.33880229     0.04900
C1086       C  0.96831011  0.15338461  0.35524513    -0.07400
C1087       C  0.97021392  0.12967632  0.38018974    -0.08200
C1088       C  0.99909021  0.11649124  0.38954470    -0.02700
C1089       C  0.52343315  0.13114095  0.37385574     0.04100
N1090       N  0.55328660  0.11731332  0.37975317     0.66600
H1091       H  0.54156536  0.16198922  0.33448420     0.15500
H1092       H  0.94893217  0.12216351  0.39290842     0.15200
N1093       N  0.93862368  0.16674543  0.34725491     0.74300
O1094       O  0.56171960  0.09461792  0.36108501    -0.39100
O1095       O  0.57347849  0.13199730  0.39710558    -0.39100
O1096       O  0.91971637  0.15194611  0.32827580    -0.39800
O1097       O  0.92899649  0.18964780  0.36484315    -0.39800
C1098       C  0.97123243  0.36458633  0.11943201    -0.12100
C1099       C  0.49941446  0.38015218  0.11287061     0.04900
C1100       C  0.52653092  0.36862876  0.12959557    -0.07400
C1101       C  0.52402158  0.34473088  0.15427071    -0.08200
C1102       C  0.99417409  0.33248433  0.16494410    -0.02700
C1103       C  0.96874400  0.34004863  0.14327727     0.04100
N1104       N  0.94011818  0.32333550  0.14554025     0.66600
H1105       H  0.95154311  0.36958278  0.10250198     0.15500
H1106       H  0.54484642  0.33604745  0.16713236     0.15200
N1107       N  0.55670942  0.38091924  0.12225183     0.74300
O1108       O  0.93458039  0.30211068  0.12364582    -0.39100
O1109       O  0.91801291  0.33437799  0.16353370    -0.39100
O1110       O  0.56861931  0.39994049  0.14348742    -0.39800
O1111       O  0.57404051  0.36719583  0.10039734    -0.39800
C1112       C  0.96736128  0.33490143  0.36268021    -0.12100
C1113       C  0.99533451  0.32592676  0.34667399     0.04900
C1114       C  0.52393496  0.34910854  0.34902621    -0.07400
C1115       C  0.52358298  0.37223300  0.37472799    -0.08200
C1116       C  0.99492980  0.37327086  0.39797587    -0.02700
C1117       C  0.96680236  0.35851487  0.38793580     0.04100
N1118       N  0.93742610  0.36721634  0.40273344     0.66600
H1119       H  0.94574362  0.32388425  0.35497672     0.15500
H1120       H  0.54443210  0.38588986  0.37882759     0.15200
N1121       N  0.55152559  0.34435715  0.32869517     0.74300
O1122       O  0.92163834  0.38845458  0.38831157    -0.39100
O1123       O  0.92442240  0.34942705  0.42459337    -0.39100
O1124       O  0.55665464  0.36147084  0.30242063    -0.39800
O1125       O  0.57334751  0.32794789  0.34102468    -0.39100
N1126       N  0.93191944  0.01383347  0.96009169    -0.06000
N1127       N  0.91345108  0.02410418  0.93485902    -0.58100
N1128       N  0.93284015  0.48415424  0.54310673    -0.05700
N1129       N  0.91537948  0.47355580  0.56882990    -0.60200
N1130       N  0.93108422  0.01571579  0.54112934    -0.05200
N1131       N  0.91158364  0.02650565  0.56503973    -0.58100
N1132       N  0.93285340  0.48296537  0.96483376    -0.04900
N1133       N  0.91296290  0.47179287  0.94160733    -0.60600
C1134       C  0.90104175  0.49744402  0.92587870     0.96200
C1135       C  0.90015155  0.00057114  0.58045623     0.96000
N1136       N  0.51696946  0.43057269  0.54195199    -0.06200
N1137       N  0.52797402  0.41153123  0.56622643    -0.58700
N1138       N  0.98458898  0.43099533  0.96632988    -0.04300
N1139       N  0.97268781  0.41211813  0.94269362    -0.59900
N1140       N  0.51474814  0.43034231  0.96376067    -0.06200
N1141       N  0.52469589  0.41067837  0.93958878    -0.58900
N1142       N  0.98421024  0.43246891  0.54448919    -0.03900
N1143       N  0.97356527  0.41555545  0.57075572    -0.60000
Mn1144     Mn  0.95724344  0.45664006  0.50365055     1.18400
C1145       C  0.50205990  0.40101856  0.58261351     0.98300
C1146       C  0.99790250  0.39914524  0.92729417     0.99000
N1147       N  0.98277630  0.06780262  0.54083445    -0.06200
N1148       N  0.97136777  0.08734293  0.56430966    -0.62500
N1149       N  0.51537594  0.06624148  0.96099381    -0.05000
N1150       N  0.52599199  0.08462083  0.93592585    -0.63200
N1151       N  0.98534999  0.06443951  0.95853623    -0.05700
N1152       N  0.97511266  0.08273925  0.93327011    -0.62800
N1153       N  0.51298800  0.06809975  0.54098921    -0.04600
N1154       N  0.52267116  0.08744856  0.56559077    -0.63500
Mn1155     Mn  0.95786019  0.04096222  0.99936009     1.10700
C1156       C  0.49598733  0.09811065  0.58059243     0.99500
C1157       C  0.00143449  0.09382448  0.91827899     0.99600
N1158       N  0.56666457  0.48196815  0.96142049    -0.05700
N1159       N  0.58400175  0.47011101  0.93619925    -0.61100
N1160       N  0.56632359  0.01659145  0.54130998    -0.05000
N1161       N  0.58449679  0.02758172  0.56632234    -0.57800
N1162       N  0.56902505  0.48173084  0.54162063    -0.06300
N1163       N  0.58820333  0.47003145  0.56525566    -0.60700
N1164       N  0.56678556  0.01339004  0.96134907    -0.05300
N1165       N  0.58634154  0.02294277  0.93679621    -0.57800
Mn1166     Mn  0.54284377  0.45630227  0.50144905     1.20200
Mn1167     Mn  0.54183238  0.04115114  0.00149873     1.10100
Cl1168     Cl  0.49967240  0.99998233  0.50091610    -0.85800
C1169       C  0.59508595  0.49520630  0.91908032     0.96500
C1170       C  0.59596712  0.00181595  0.58213086     0.96300
N1171       N  0.98966472  0.29773237  0.75690959    -0.36500
N1172       N  0.99407801  0.24714640  0.80760687    -0.57000
N1173       N  0.99424521  0.20215765  0.74984796    -0.36500
N1174       N  0.99492219  0.25273638  0.69913160    -0.57000
C1175       C  0.99593376  0.31382835  0.78660187     0.27100
C1176       C  0.99486894  0.31699137  0.72946102     0.27100
C1177       C  0.99910918  0.18297790  0.77744491     0.27100
C1178       C  0.00082815  0.18600480  0.72027214     0.27100
C1179       C  0.99001884  0.27098243  0.83021826     0.35700
C1180       C  0.99035599  0.22082634  0.82642013     0.35700
C1181       C  0.98973335  0.27883299  0.68022944     0.35700
C1182       C  0.99325142  0.22862536  0.67642425     0.35700
C1183       C  0.00458134  0.34384477  0.77786997    -0.21700
C1184       C  0.00392850  0.34583316  0.74189159    -0.21700
C1185       C  0.00845550  0.15408449  0.76525020    -0.21700
C1186       C  0.00951971  0.15598553  0.72923653    -0.21700
C1187       C  0.98398557  0.25978660  0.86364513    -0.22800
C1188       C  0.98417380  0.22800765  0.86125020    -0.22800
C1189       C  0.98511044  0.27123732  0.64520813    -0.22800
C1190       C  0.98747576  0.23950150  0.64279453    -0.22800
C1191       C  0.99325468  0.30267980  0.82148820    -0.18100
C1192       C  0.99135472  0.30957434  0.69346467    -0.18100
C1193       C  0.99781525  0.19698508  0.68533555    -0.18100
C1194       C  0.99446746  0.19038308  0.81329779    -0.18100
H1195       H  0.01092950  0.36240757  0.79557389     0.14800
H1196       H  0.00973348  0.36621770  0.72663266     0.14800
H1197       H  0.01385684  0.13364899  0.78067209     0.14800
H1198       H  0.01585333  0.13727257  0.71167165     0.14800
H1199       H  0.98011512  0.27311788  0.88733042     0.13000
H1200       H  0.98051905  0.21201021  0.88279046     0.13000
H1201       H  0.98080677  0.28695573  0.62353812     0.13000
H1202       H  0.98529389  0.22600126  0.61897680     0.13000
H1203       H  0.98112441  0.27533331  0.75537433     0.26300
H1204       H  0.98549750  0.22449419  0.75119671     0.26300
N1205       N  0.70283613  0.49561452  0.75052708    -0.36500
N1206       N  0.74825441  0.49335192  0.80748895    -0.57000
N1207       N  0.79846428  0.49735822  0.75606504    -0.36500
N1208       N  0.75308369  0.49505983  0.69909320    -0.57000
C1209       C  0.68400922  0.48946172  0.77805393     0.27100
C1210       C  0.68664049  0.48902273  0.72108784     0.27100
C1211       C  0.81538333  0.49249094  0.78548807     0.27100
C1212       C  0.81796642  0.49448128  0.72839490     0.27100
C1213       C  0.72208985  0.49704068  0.82673877     0.35700
C1214       C  0.77245108  0.49671225  0.82980224     0.35700
C1215       C  0.72870922  0.49747597  0.67684664     0.35700
C1216       C  0.77901053  0.49968794  0.67974392     0.35700
C1217       C  0.65530988  0.47929157  0.76602465    -0.21700
C1218       C  0.65694719  0.47904348  0.73004737    -0.21700
C1219       C  0.84624474  0.48697274  0.77638683    -0.21700
C1220       C  0.84787140  0.48824920  0.74039056    -0.21700
C1221       C  0.72965989  0.50229255  0.86162081    -0.22800
C1222       C  0.76160010  0.50193210  0.86359055    -0.22800
C1223       C  0.73918016  0.50303486  0.64299556    -0.22800
C1224       C  0.77107423  0.50445265  0.64482203    -0.22800
C1225       C  0.69145141  0.49403645  0.81370886    -0.18100
C1226       C  0.69720990  0.49335973  0.68633558    -0.18100
C1227       C  0.80986112  0.49825551  0.69266109    -0.18100
C1228       C  0.80421391  0.49426871  0.82040237    -0.18100
H1229       H  0.63519638  0.47284620  0.78154867     0.14800
H1230       H  0.63825083  0.47243875  0.71254578     0.14800
H1231       H  0.86569709  0.48268890  0.79384880     0.14800
H1232       H  0.86878167  0.48508318  0.72486506     0.14800
H1233       H  0.71383333  0.50573349  0.88343192     0.13000
H1234       H  0.77525572  0.50516168  0.88719463     0.13000
H1235       H  0.72532018  0.50558421  0.61941201     0.13000
H1236       H  0.78663685  0.50834259  0.62288003     0.13000
H1237       H  0.72473331  0.50552263  0.75178927     0.26300
H1238       H  0.77526979  0.50365035  0.75495284     0.26300
C1239       C  0.63510577  0.02998569  0.61844328    -0.12100
C1240       C  0.61938996  0.00219893  0.61068950     0.04900
C1241       C  0.63876553  0.46575682  0.61952423    -0.07400
C1242       C  0.66299303  0.46600927  0.64403702    -0.08200
C1243       C  0.67341361  0.49392495  0.65834938    -0.02700
C1244       C  0.65842863  0.03071397  0.64413707     0.04100
N1245       N  0.67373741  0.05927614  0.65197013     0.66600
H1246       H  0.62951038  0.05114082  0.60436429     0.15500
H1247       H  0.67318213  0.44426053  0.65270638     0.15200
N1248       N  0.62795791  0.43645987  0.60708188     0.74300
O1249       O  0.69842363  0.06643974  0.63590398    -0.39100
O1250       O  0.66526680  0.07494012  0.67829417    -0.39100
O1251       O  0.64308624  0.42246391  0.58346058    -0.39800
O1252       O  0.60791137  0.42182602  0.62475669    -0.39800
C1253       C  0.63712108  0.02234605  0.88491582    -0.12100
C1254       C  0.61801473  0.49370666  0.89007507     0.04900
C1255       C  0.63544530  0.46642189  0.88301658    -0.07400
C1256       C  0.65926678  0.46704778  0.85806824    -0.08200
C1257       C  0.66553322  0.49408914  0.83919531    -0.02700
C1258       C  0.66117148  0.02187354  0.86006997     0.04100
N1259       N  0.67657630  0.05010556  0.85090227     0.66600
H1260       H  0.63075556  0.04427973  0.89684022     0.15500
H1261       H  0.67306815  0.44633436  0.85342962     0.15200
N1262       N  0.62979708  0.43798491  0.90121040     0.74300
O1263       O  0.66677127  0.06607376  0.82537141    -0.39100
O1264       O  0.70246592  0.05656507  0.86475722    -0.39100
O1265       O  0.61404078  0.41708744  0.88637464    -0.39800
O1266       O  0.64622384  0.43111162  0.92759584    -0.39800
C1267       C  0.87165188  0.52674789  0.62935433    -0.12100
C1268       C  0.87566045  0.00057232  0.60780751     0.04900
C1269       C  0.86484528  0.97273506  0.62338838    -0.07400
C1270       C  0.84160676  0.97390278  0.64897720    -0.08200
C1271       C  0.83538099  0.49884135  0.66663400    -0.02700
C1272       C  0.84903131  0.52688017  0.65592847     0.04100
N1273       N  0.83962701  0.55555790  0.67153547     0.66600
H1274       H  0.88165937  0.54858237  0.62096948     0.15500
H1275       H  0.83355528  0.95255077  0.66097099     0.15200
N1276       N  0.87675721  0.94302141  0.61340221     0.74300
O1277       O  0.85111311  0.56356095  0.70063915    -0.39100
O1278       O  0.79953456  0.06740928  0.63885232    -0.39100
O1279       O  0.89431845  0.42352067  0.62689812    -0.39800
O1280       O  0.86306617  0.92790223  0.58963835    -0.39800
C1281       C  0.84030622  0.52318338  0.85884041    -0.12100
C1282       C  0.82772330  0.49473482  0.84878013     0.04900
C1283       C  0.83879662  0.46716009  0.86411132    -0.07400
C1284       C  0.86282757  0.46838043  0.88898786    -0.08200
C1285       C  0.87588223  0.49697416  0.89908535    -0.02700
C1286       C  0.86408240  0.52462136  0.88381102     0.04100
N1287       N  0.87599242  0.55442739  0.89300092     0.66600
H1288       H  0.83179641  0.54442325  0.84688032     0.15500
H1289       H  0.88962979  0.95010216  0.87680882     0.15200
N1290       N  0.82598011  0.43786716  0.85425299     0.74300
O1291       O  0.89699354  0.56651715  0.87429085    -0.39100
O1292       O  0.84176335  0.05720199  0.92813133    -0.39100
O1293       O  0.83639028  0.42394159  0.82755783    -0.39800
O1294       O  0.82741768  0.92083185  0.83266395    -0.39800
C1295       C  0.52176174  0.14001876  0.61511771    -0.12100
C1296       C  0.49476669  0.12264671  0.60813422     0.04900
C1297       C  0.96855363  0.13520814  0.62283061    -0.07400
C1298       C  0.96958313  0.15905051  0.64785344    -0.08200
C1299       C  0.99776076  0.17333685  0.65677282    -0.02700
C1300       C  0.52154733  0.16404788  0.63991208     0.04100
N1301       N  0.54936413  0.18139899  0.64574917     0.66600
H1302       H  0.54314134  0.13526855  0.60092104     0.15500
H1303       H  0.94822053  0.16632650  0.66069169     0.15200
N1304       N  0.93905878  0.12157906  0.61494807     0.74300
O1305       O  0.57004534  0.17078824  0.66607150    -0.39100
O1306       O  0.55574974  0.20389689  0.62579701    -0.39100
O1307       O  0.92715451  0.10266532  0.63639205    -0.39800
O1308       O  0.92207050  0.13375188  0.59161218    -0.39800
C1309       C  0.52152637  0.16016472  0.85671383    -0.12100
C1310       C  0.99645898  0.16476096  0.83917810     0.04900
C1311       C  0.97086259  0.14537888  0.84591964    -0.07400
C1312       C  0.97342058  0.12189207  0.87106650    -0.08200
C1313       C  0.00125694  0.11723658  0.88981483    -0.02700
C1314       C  0.52494724  0.13660770  0.88174108     0.04100
N1315       N  0.55510336  0.13123902  0.89650057     0.66600
H1316       H  0.54167197  0.17368506  0.84900446     0.15500
H1317       H  0.95325107  0.10752894  0.87629931     0.15200
N1318       N  0.94188053  0.14981142  0.82812445     0.74300
O1319       O  0.57423445  0.11417899  0.88027245    -0.39100
O1320       O  0.56491357  0.14896301  0.92039055    -0.39100
O1321       O  0.93382160  0.13087230  0.80460104    -0.39800
O1322       O  0.92179854  0.16796039  0.84104520    -0.39800
C1323       C  0.97258576  0.38025424  0.63705602    -0.12100
C1324       C  0.50182019  0.37800090  0.61149994     0.04900
C1325       C  0.52529882  0.35515036  0.61519469    -0.07400
C1326       C  0.52287562  0.33273162  0.64168842    -0.08200
C1327       C  0.99369504  0.33533898  0.66759339    -0.02700
C1328       C  0.96984477  0.35759657  0.66326921     0.04100
N1329       N  0.94272114  0.35741872  0.68507582     0.66600
H1330       H  0.95375494  0.39676562  0.63347198     0.15500
H1331       H  0.54064522  0.31488584  0.64382601     0.15200
N1332       N  0.55079742  0.35319687  0.59115164     0.74300
O1333       O  0.91825038  0.34442600  0.67421544    -0.39100
O1334       O  0.94098249  0.37612703  0.71048131    -0.39100
O1335       O  0.57744852  0.36210949  0.60074691    -0.39800
O1336       O  0.54831365  0.33637983  0.56420243    -0.39800
C1337       C  0.96830568  0.34553281  0.85515907    -0.12100
C1338       C  0.99407316  0.32596836  0.85031550     0.04900
C1339       C  0.52431971  0.33399249  0.86583972    -0.07400
C1340       C  0.52438509  0.35806771  0.89048665    -0.08200
C1341       C  0.99615860  0.37435162  0.90035254    -0.02700
C1342       C  0.96898628  0.36944297  0.88000872     0.04100
N1343       N  0.94219957  0.38903688  0.88335470     0.66600
H1344       H  0.94767482  0.34246864  0.83911778     0.15500
H1345       H  0.54580907  0.36308916  0.90439909     0.15200
N1346       N  0.55221867  0.31653939  0.86011612     0.74300
O1347       O  0.93872271  0.41158985  0.86253892    -0.39100
O1348       O  0.91934085  0.38004554  0.90154443    -0.39100
O1349       O  0.57429413  0.32849584  0.84294217    -0.39800
O1350       O  0.55725341  0.29250626  0.87823822    -0.39100
N1351       N  0.93178369  0.51254102  0.46144637    -0.06000
N1352       N  0.91306980  0.52261778  0.43637144    -0.58100
N1353       N  0.93204409  0.98582107  0.04198794    -0.05700
N1354       N  0.91457148  0.97606025  0.06819843    -0.60200
N1355       N  0.93455386  0.51597475  0.04430112    -0.05200
N1356       N  0.91634428  0.52689523  0.06949860    -0.58100
N1357       N  0.93233165  0.98373437  0.46138414    -0.04900
N1358       N  0.91318871  0.97289978  0.43716552    -0.60600
C1359       C  0.90155213  0.99877944  0.42162631     0.96200
C1360       C  0.90559129  0.50094816  0.08560584     0.96000
N1361       N  0.51414011  0.93286256  0.04353368    -0.06200
N1362       N  0.52519172  0.91337102  0.06725070    -0.58700
N1363       N  0.98412863  0.93154596  0.46437767    -0.04300
N1364       N  0.97300400  0.91193063  0.44105250    -0.59900
N1365       N  0.51622059  0.93208145  0.46151781    -0.06200
N1366       N  0.52719626  0.91259021  0.43774335    -0.58900
N1367       N  0.98261799  0.93302353  0.04387112    -0.03900
N1368       N  0.97146684  0.91577284  0.06956781    -0.60000
Mn1369     Mn  0.95636537  0.95760390  0.00270558     1.18400
C1370       C  0.49936264  0.90250407  0.08339936     0.98300
C1371       C  0.99863584  0.89882897  0.42669801     0.99000
N1372       N  0.98638178  0.56752910  0.04038947    -0.06200
N1373       N  0.97550293  0.58700591  0.06413141    -0.62500
N1374       N  0.51740257  0.56622943  0.46381431    -0.05000
N1375       N  0.52859399  0.58423903  0.43875435    -0.63200
N1376       N  0.98440264  0.56380515  0.45902218    -0.05700
N1377       N  0.97378542  0.58142890  0.43326643    -0.62800
N1378       N  0.51545133  0.56693486  0.04020980    -0.04600
N1379       N  0.52562919  0.58634287  0.06445145    -0.63500
Mn1380     Mn  0.95753540  0.53994015  0.50049348     1.10700
C1381       C  0.49919089  0.59773665  0.07927069     0.99500
C1382       C  0.99987309  0.59204150  0.41722389     0.99600
N1383       N  0.56690711  0.98534120  0.46097147    -0.05700
N1384       N  0.58504452  0.97447804  0.43582302    -0.61100
N1385       N  0.56833277  0.51461003  0.04088455    -0.05000
N1386       N  0.58834944  0.52579571  0.06390744    -0.57800
N1387       N  0.56666044  0.98381001  0.04184835    -0.06300
N1388       N  0.58619842  0.97285843  0.06559971    -0.60700
N1389       N  0.56844614  0.51376959  0.46220855    -0.05300
N1390       N  0.58669339  0.52451615  0.43704834    -0.57800
Mn1391     Mn  0.54024579  0.95745134  0.00255157     1.20200
Mn1392     Mn  0.54376624  0.54014876  0.50358197     1.10100
Cl1393     Cl  0.50031778  0.49898166  0.00169839    -0.85800
C1394       C  0.59606371  0.00018560  0.41972891     0.96500
C1395       C  0.60102757  0.50023358  0.07893621     0.96300
N1396       N  0.98982808  0.79710502  0.25545392    -0.36500
N1397       N  0.99593992  0.74686604  0.30674096    -0.57000
N1398       N  0.99954501  0.70185381  0.24909670    -0.36500
N1399       N  0.99538837  0.75199531  0.19769350    -0.57000
C1400       C  0.99516554  0.81397273  0.28485827     0.27100
C1401       C  0.99165681  0.81665770  0.22770064     0.27100
C1402       C  0.99917072  0.68196251  0.27662585     0.27100
C1403       C  0.00167511  0.68486260  0.21929521     0.27100
C1404       C  0.99508572  0.77094801  0.32942222     0.35700
C1405       C  0.99539778  0.72060668  0.32615736     0.35700
C1406       C  0.99015212  0.77784046  0.17845152     0.35700
C1407       C  0.99690659  0.72794700  0.17493869     0.35700
C1408       C  0.99938269  0.84483455  0.27562636    -0.21700
C1409       C  0.99716621  0.84652579  0.23970897    -0.21700
C1410       C  0.00142517  0.65180788  0.26411664    -0.21700
C1411       C  0.00330002  0.65363770  0.22815655    -0.21700
C1412       C  0.99427274  0.75994136  0.36362340    -0.22800
C1413       C  0.99436294  0.72812156  0.36156791    -0.22800
C1414       C  0.98840638  0.77015676  0.14312079    -0.22800
C1415       C  0.99278605  0.73865313  0.14090219    -0.22800
C1416       C  0.99600668  0.80273266  0.31993240    -0.18100
C1417       C  0.98898351  0.80857224  0.19172591    -0.18100
C1418       C  0.00114993  0.69631810  0.18421721    -0.18100
C1419       C  0.99665546  0.68989304  0.31276039    -0.18100
H1420       H  0.00387965  0.86422059  0.29291188     0.14800
H1421       H  0.99979042  0.86742026  0.22419989     0.14800
H1422       H  0.00159784  0.63053739  0.27925353     0.14800
H1423       H  0.00520105  0.63400970  0.21058144     0.14800
H1424       H  0.99383817  0.77340149  0.38759759     0.13000
H1425       H  0.99405644  0.71234872  0.38370624     0.13000
H1426       H  0.98464147  0.78567110  0.12113629     0.13000
H1427       H  0.99268523  0.72516943  0.11694157     0.13000
H1428       H  0.98449619  0.77379539  0.25424568     0.26300
H1429       H  0.99818023  0.72561160  0.25062128     0.26300
N1430       N  0.70218894  0.99924408  0.24885303    -0.36500
N1431       N  0.74845948  0.99880057  0.30474896    -0.57000
N1432       N  0.79787664  0.99873634  0.25225770    -0.36500
N1433       N  0.75161382  0.00369798  0.19644353    -0.57000
C1434       C  0.68332877  0.00377368  0.27683056     0.27100
C1435       C  0.68508116  0.00445163  0.21967471     0.27100
C1436       C  0.81470631  0.00314641  0.28176905     0.27100
C1437       C  0.81622384  0.00665106  0.22486187     0.27100
C1438       C  0.72257328  0.99543981  0.32454724     0.35700
C1439       C  0.77300892  0.99381523  0.32622061     0.35700
C1440       C  0.72722797  0.99903103  0.17476642     0.35700
C1441       C  0.77750862  0.00045195  0.17667261     0.35700
C1442       C  0.65363121  0.01148110  0.26521665    -0.21700
C1443       C  0.65473103  0.01188396  0.22915434    -0.21700
C1444       C  0.84434005  0.01341213  0.27293960    -0.21700
C1445       C  0.84524588  0.01572083  0.23701530    -0.21700
C1446       C  0.73074501  0.98877828  0.35898335    -0.22800
C1447       C  0.76271801  0.98766866  0.36001714    -0.22800
C1448       C  0.73764472  0.99332838  0.14089544    -0.22800
C1449       C  0.76957816  0.99425517  0.14210246    -0.22800
C1450       C  0.69170479  0.99982188  0.31248581    -0.18100
C1451       C  0.69564985  0.00128794  0.18470808    -0.18100
C1452       C  0.80818276  0.00428311  0.18909173    -0.18100
C1453       C  0.80455832  0.99706938  0.31637703    -0.18100
H1454       H  0.63316483  0.01607218  0.28103713     0.14800
H1455       H  0.63530887  0.01691279  0.21189609     0.14800
H1456       H  0.86344378  0.01864752  0.29048571     0.14800
H1457       H  0.86510941  0.02304443  0.22158183     0.14800
H1458       H  0.71530985  0.98535952  0.38113738     0.13000
H1459       H  0.77677769  0.98336321  0.38312513     0.13000
H1460       H  0.72369586  0.98910345  0.11771605     0.13000
H1461       H  0.78515795  0.99083161  0.12006335     0.13000
H1462       H  0.72498801  0.99150933  0.24946267     0.26300
H1463       H  0.77581131  0.98919700  0.25081848     0.26300
C1464       C  0.63316537  0.52971788  0.12199706    -0.12100
C1465       C  0.62639774  0.50130188  0.10546332     0.04900
C1466       C  0.63341033  0.97112193  0.12419553    -0.07400
C1467       C  0.65721359  0.97244402  0.14915767    -0.08200
C1468       C  0.67188369  0.00051894  0.15677809    -0.02700
C1469       C  0.65668321  0.53175147  0.14737612     0.04100
N1470       N  0.66329808  0.56095236  0.16342692     0.66600
H1471       H  0.62002866  0.55043693  0.11542337     0.15500
H1472       H  0.66408557  0.95151789  0.16300205     0.15200
N1473       N  0.61902520  0.94186312  0.11755938     0.74300
O1474       O  0.68428870  0.57803517  0.15065948    -0.39100
O1475       O  0.65218969  0.56712818  0.19331116    -0.39100
O1476       O  0.63361514  0.92157955  0.10015133    -0.39800
O1477       O  0.59550723  0.93398114  0.13533115    -0.39800
C1478       C  0.62824551  0.52723731  0.37565858    -0.12100
C1479       C  0.61940562  0.99983036  0.39083547     0.04900
C1480       C  0.62916253  0.97186807  0.37452564    -0.07400
C1481       C  0.65239589  0.97246017  0.34876815    -0.08200
C1482       C  0.66642502  0.00034629  0.33896363    -0.02700
C1483       C  0.65101754  0.52860530  0.34933957     0.04100
N1484       N  0.65857021  0.55774542  0.33358673     0.66600
H1485       H  0.61680740  0.54851431  0.38370038     0.15500
H1486       H  0.65987663  0.95094038  0.33664630     0.15200
N1487       N  0.61606945  0.94255812  0.38385740     0.74300
O1488       O  0.64632390  0.56525827  0.30465851    -0.39100
O1489       O  0.68102228  0.57340250  0.34543469    -0.39100
O1490       O  0.59560520  0.93064330  0.36431815    -0.39800
O1491       O  0.62986067  0.92576472  0.40618579    -0.39800
C1492       C  0.86430024  0.03087032  0.11857489    -0.12100
C1493       C  0.88186899  0.50062667  0.11373149     0.04900
C1494       C  0.86159325  0.47504503  0.11808851    -0.07400
C1495       C  0.83815417  0.47612863  0.14340529    -0.08200
C1496       C  0.83374844  0.00479601  0.16319055    -0.02700
C1497       C  0.84072029  0.03172045  0.14396188     0.04100
N1498       N  0.82396712  0.05992344  0.15009215     0.66600
H1499       H  0.86902969  0.05162242  0.10341853     0.15500
H1500       H  0.82229756  0.45673065  0.14607871     0.15200
N1501       N  0.86374071  0.44811049  0.09638639     0.74300
O1502       O  0.83035471  0.07625822  0.17659541    -0.39100
O1503       O  0.83258837  0.57269794  0.18168287    -0.39100
O1504       O  0.91409252  0.94286549  0.14987953    -0.39800
O1505       O  0.84605164  0.44566076  0.07007527    -0.39800
C1506       C  0.83746653  0.02509544  0.35902466    -0.12100
C1507       C  0.82847116  0.99688894  0.34428654     0.04900
C1508       C  0.84337474  0.96928767  0.35462401    -0.07400
C1509       C  0.86720147  0.97027693  0.37975555    -0.08200
C1510       C  0.87670444  0.99868441  0.39448323    -0.02700
C1511       C  0.86149780  0.02634415  0.38366679     0.04100
N1512       N  0.86993254  0.05598914  0.39733672     0.66600
H1513       H  0.82609258  0.04639184  0.35077296     0.15500
H1514       H  0.86367653  0.44814153  0.40651981     0.15200
N1515       N  0.83448575  0.94023361  0.33966262     0.74300
O1516       O  0.88845290  0.07288356  0.38013276    -0.39100
O1517       O  0.87760130  0.57267263  0.39084044    -0.39100
O1518       O  0.84438895  0.93270796  0.30963487    -0.39800
O1519       O  0.79240965  0.43568435  0.37820529    -0.39800
C1520       C  0.52463068  0.64173330  0.11009345    -0.12100
C1521       C  0.49852721  0.62244297  0.10637971     0.04900
C1522       C  0.97373278  0.63159724  0.12495384    -0.07400
C1523       C  0.97415806  0.65578803  0.14940574    -0.08200
C1524       C  0.00131435  0.67288619  0.15546076    -0.02700
C1525       C  0.52498522  0.66571233  0.13488425     0.04100
N1526       N  0.55159274  0.68546112  0.13677787     0.66600
H1527       H  0.54476549  0.63855967  0.09326197     0.15500
H1528       H  0.95337930  0.66065475  0.16468198     0.15200
N1529       N  0.94595679  0.61361802  0.12179925     0.74300
O1530       O  0.57533495  0.67649408  0.15354470    -0.39100
O1531       O  0.55410383  0.70758797  0.11523003    -0.39100
O1532       O  0.94183996  0.59088902  0.14218362    -0.39800
O1533       O  0.92308850  0.62443707  0.10486056    -0.39800
C1534       C  0.53009584  0.65326808  0.35258445    -0.12100
C1535       C  0.99703049  0.66399872  0.33859187     0.04900
C1536       C  0.96944957  0.65292176  0.35411729    -0.07400
C1537       C  0.97090379  0.62893661  0.37887053    -0.08200
C1538       C  0.99956573  0.61550153  0.38857682    -0.02700
C1539       C  0.53127643  0.63042951  0.37881350     0.04100
N1540       N  0.56115633  0.61951973  0.39000435     0.66600
H1541       H  0.55163276  0.66197077  0.34146326     0.15500
H1542       H  0.94941079  0.62119155  0.39094156     0.15200
N1543       N  0.93982204  0.66593054  0.34518001     0.74300
O1544       O  0.57536458  0.59963464  0.37164612    -0.39100
O1545       O  0.57612362  0.63485889  0.41257406    -0.39100
O1546       O  0.92291354  0.65230803  0.32294778    -0.39800
O1547       O  0.92785764  0.68626441  0.36487393    -0.39800
C1548       C  0.96733210  0.87519926  0.13076013    -0.12100
C1549       C  0.49940297  0.87837160  0.11102027     0.04900
C1550       C  0.52330175  0.85581855  0.11356315    -0.07400
C1551       C  0.52155377  0.83267175  0.13924098    -0.08200
C1552       C  0.99062002  0.83412628  0.16569921    -0.02700
C1553       C  0.96448017  0.85214771  0.15649691     0.04100
N1554       N  0.93486524  0.84697112  0.17256682     0.66600
H1555       H  0.94682866  0.88851234  0.12358447     0.15500
H1556       H  0.53981276  0.81526511  0.14071436     0.15200
N1557       N  0.54897710  0.85534932  0.08965556     0.74300
O1558       O  0.91545682  0.82944773  0.15765515    -0.39100
O1559       O  0.92570399  0.86494357  0.19661498    -0.39100
O1560       O  0.57493876  0.86602328  0.09934806    -0.39800
O1561       O  0.54774876  0.83819355  0.06286522    -0.39800
C1562       C  0.96940144  0.83670366  0.36333440    -0.12100
C1563       C  0.99732958  0.82616459  0.34859360     0.04900
C1564       C  0.53266528  0.84069800  0.35852191    -0.07400
C1565       C  0.53083926  0.86464830  0.38332745    -0.08200
C1566       C  0.99768569  0.87364843  0.39993916    -0.02700
C1567       C  0.96926202  0.85998368  0.38893552     0.04100
N1568       N  0.93998811  0.86894210  0.40376806     0.66600
H1569       H  0.94748854  0.82679283  0.35478748     0.15500
H1570       H  0.55230869  0.87455599  0.39315419     0.15200
N1571       N  0.56256887  0.82990597  0.34727379     0.74300
O1572       O  0.92291720  0.88812717  0.38763025    -0.39100
O1573       O  0.92849396  0.85296501  0.42833800    -0.39100
O1574       O  0.57948091  0.84718914  0.32853017    -0.39800
O1575       O  0.57438164  0.80623698  0.36164483    -0.39100
N1576       N  0.93302573  0.51343972  0.96366180    -0.06000
N1577       N  0.91335972  0.52359673  0.93962214    -0.58100
N1578       N  0.93143270  0.98523539  0.54168542    -0.05700
N1579       N  0.91233779  0.97465708  0.56595175    -0.60200
N1580       N  0.93228884  0.51462896  0.54236195    -0.05200
N1581       N  0.91424791  0.52537521  0.56784291    -0.58100
N1582       N  0.93144162  0.98334666  0.96130164    -0.04900
N1583       N  0.91282919  0.97225845  0.93675764    -0.60600
C1584       C  0.90177037  0.99793054  0.92038829     0.96200
C1585       C  0.90389024  0.49934740  0.58420507     0.96000
N1586       N  0.51598142  0.93309516  0.54216010    -0.06200
N1587       N  0.52658585  0.91455281  0.56718331    -0.58700
N1588       N  0.98185981  0.93029360  0.96358899    -0.04300
N1589       N  0.97021387  0.91059557  0.94060628    -0.59900
N1590       N  0.51238339  0.93255645  0.96320999    -0.06200
N1591       N  0.52224361  0.91427058  0.93777445    -0.58900
N1592       N  0.98321279  0.93383241  0.54464803    -0.03900
N1593       N  0.97164516  0.91633952  0.56986780    -0.60000
Mn1594     Mn  0.95731966  0.95807298  0.50294475     1.18400
C1595       C  0.50035988  0.90333443  0.58240420     0.98300
C1596       C  0.99564335  0.89745850  0.92574539     0.99000
N1597       N  0.98416013  0.56615709  0.53943926    -0.06200
N1598       N  0.97287612  0.58590532  0.56264431    -0.62500
N1599       N  0.51605013  0.56570474  0.95999506    -0.05000
N1600       N  0.52715255  0.58557219  0.93677026    -0.63200
N1601       N  0.98549379  0.56448863  0.95991519    -0.05700
N1602       N  0.97452123  0.58189623  0.93417806    -0.62800
N1603       N  0.51726996  0.56572277  0.54461170    -0.04600
N1604       N  0.52781979  0.58469204  0.56915435    -0.63500
Mn1605     Mn  0.95928973  0.54100227  0.00204646     1.10700
C1606       C  0.50163120  0.59599671  0.58462349     0.99500
C1607       C  0.00040588  0.59249897  0.91773364     0.99600
N1608       N  0.56564920  0.98289357  0.96173288    -0.05700
N1609       N  0.58428877  0.97116621  0.93757219    -0.61100
N1610       N  0.56922502  0.51223690  0.54286799    -0.05000
N1611       N  0.58867811  0.52183342  0.56739449    -0.57800
N1612       N  0.56678767  0.98606006  0.54149585    -0.06300
N1613       N  0.58520057  0.97572499  0.56667506    -0.60700
N1614       N  0.56706367  0.51248008  0.96020637    -0.05300
N1615       N  0.58472136  0.52194054  0.93386199    -0.57800
Mn1616     Mn  0.54218860  0.95858344  0.50152994     1.20200
Mn1617     Mn  0.54239602  0.54050782  0.00039104     1.10100
Cl1618     Cl  0.50138330  0.49883853  0.50320602    -0.85800
C1619       C  0.59698658  0.99631797  0.92199212     0.96500
C1620       C  0.60026288  0.49522834  0.58129832     0.96300
N1621       N  0.99334823  0.79612016  0.75459858    -0.36500
N1622       N  0.99387915  0.74565808  0.80598875    -0.57000
N1623       N  0.99446752  0.70055304  0.74826479    -0.36500
N1624       N  0.99151568  0.75090748  0.69688795    -0.57000
C1625       C  0.99119631  0.81288059  0.78457623     0.27100
C1626       C  0.98769969  0.81558556  0.72735927     0.27100
C1627       C  0.99358531  0.68061265  0.77574090     0.27100
C1628       C  0.99525269  0.68351198  0.71842248     0.27100
C1629       C  0.99641232  0.76966719  0.82860255     0.35700
C1630       C  0.99486008  0.71935587  0.82531719     0.35700
C1631       C  0.99078457  0.77722385  0.67759002     0.35700
C1632       C  0.99471141  0.72699874  0.67417851     0.35700
C1633       C  0.98474293  0.84358511  0.77615858    -0.21700
C1634       C  0.98243078  0.84525288  0.74019096    -0.21700
C1635       C  0.99369774  0.65041818  0.76314510    -0.21700
C1636       C  0.99484889  0.65223581  0.72712931    -0.21700
C1637       C  0.99875236  0.75855925  0.86268614    -0.22800
C1638       C  0.99759813  0.72677655  0.86063838    -0.22800
C1639       C  0.99302475  0.76994492  0.64219113    -0.22800
C1640       C  0.99556518  0.73820849  0.64004953    -0.22800
C1641       C  0.99524346  0.80151362  0.81932700    -0.18100
C1642       C  0.98831814  0.80779533  0.69114697    -0.18100
C1643       C  0.99649224  0.69513876  0.68350919    -0.18100
C1644       C  0.99364908  0.68865214  0.81189948    -0.18100
H1645       H  0.98190138  0.86290485  0.79401200     0.14800
H1646       H  0.97751451  0.86605918  0.72520936     0.14800
H1647       H  0.99332984  0.62915421  0.77828674     0.14800
H1648       H  0.99540710  0.63261918  0.70942191     0.14800
H1649       H  0.00074791  0.77194146  0.88661047     0.13000
H1650       H  0.99878921  0.71096363  0.88270783     0.13000
H1651       H  0.99297577  0.78583585  0.62015271     0.13000
H1652       H  0.99782692  0.72492745  0.61607146     0.13000
H1653       H  0.99949151  0.77342826  0.75280087     0.26300
H1654       H  0.99489519  0.72391481  0.74981841     0.26300
N1655       N  0.70107453  0.99630561  0.75200534    -0.36500
N1656       N  0.74996285  0.99262034  0.80492395    -0.57000
N1657       N  0.79690477  0.99483863  0.74975377    -0.36500
N1658       N  0.74798652  0.00312150  0.69714281    -0.57000
C1659       C  0.68364932  0.99913564  0.78139441     0.27100
C1660       C  0.68264780  0.00367083  0.72445349     0.27100
C1661       C  0.81506904  0.99858606  0.77840460     0.27100
C1662       C  0.81394724  0.00344675  0.72158010     0.27100
C1663       C  0.72506363  0.98775120  0.82588660     0.35700
C1664       C  0.77552227  0.98694734  0.82459621     0.35700
C1665       C  0.72245299  0.00048442  0.67670979     0.35700
C1666       C  0.77277042  0.99999568  0.67561260     0.35700
C1667       C  0.65352096  0.00783531  0.77227164    -0.21700
C1668       C  0.65290559  0.01069760  0.73635384    -0.21700
C1669       C  0.84421308  0.00920132  0.76821091    -0.21700
C1670       C  0.84354292  0.01213236  0.73230895    -0.21700
C1671       C  0.73485850  0.97918715  0.85922298    -0.22800
C1672       C  0.76686033  0.97860437  0.85837935    -0.22800
C1673       C  0.73105553  0.99628121  0.64192089    -0.22800
C1674       C  0.76299948  0.99599866  0.64122341    -0.22800
C1675       C  0.69372080  0.99303835  0.81611751    -0.18100
C1676       C  0.69144319  0.00286229  0.68873005    -0.18100
C1677       C  0.80411297  0.00214838  0.68628981    -0.18100
C1678       C  0.80651192  0.99175910  0.81339042    -0.18100
H1679       H  0.63387890  0.01155653  0.78963012     0.14800
H1680       H  0.63278145  0.01709866  0.72076929     0.14800
H1681       H  0.86401075  0.01417438  0.78487062     0.14800
H1682       H  0.86270162  0.01978016  0.71597956     0.14800
H1683       H  0.72047338  0.97430204  0.88191349     0.13000
H1684       H  0.78202676  0.97321803  0.88028550     0.13000
H1685       H  0.71590871  0.99375225  0.61938196     0.13000
H1686       H  0.77737053  0.99329581  0.61804563     0.13000
H1687       H  0.72379597  0.98840873  0.75062537     0.26300
H1688       H  0.77475831  0.98538784  0.74918799     0.26300
C1689       C  0.63604626  0.52207334  0.62267302    -0.12100
C1690       C  0.62510496  0.49408151  0.60832404     0.04900
C1691       C  0.62715624  0.97504460  0.62969212    -0.07400
C1692       C  0.65060452  0.97585135  0.65502836    -0.08200
C1693       C  0.66636341  0.00338189  0.66221610    -0.02700
C1694       C  0.65982545  0.52209319  0.64775676     0.04100
N1695       N  0.66977103  0.55077363  0.66278743     0.66600
H1696       H  0.62594647  0.54405102  0.61470063     0.15500
H1697       H  0.65649742  0.95487557  0.66934424     0.15200
N1698       N  0.61082010  0.94665109  0.62454612     0.74300
O1699       O  0.69187657  0.56557576  0.64881670    -0.39100
O1700       O  0.66005381  0.55860994  0.69279131    -0.39100
O1701       O  0.62403014  0.92463600  0.60849706    -0.39800
O1702       O  0.58662286  0.94139127  0.64240801    -0.39800
C1703       C  0.62360636  0.52044351  0.86984893    -0.12100
C1704       C  0.62167175  0.99488112  0.89463825     0.04900
C1705       C  0.63080020  0.96657388  0.87861212    -0.07400
C1706       C  0.65460465  0.96634861  0.85348174    -0.08200
C1707       C  0.66984515  0.99373672  0.84417431    -0.02700
C1708       C  0.64694618  0.52062957  0.84417457     0.04100
N1709       N  0.65161229  0.54778526  0.82325292     0.66600
H1710       H  0.60999840  0.54132833  0.87412711     0.15500
H1711       H  0.66116396  0.94469350  0.84100932     0.15200
N1712       N  0.61612990  0.93783031  0.88718667     0.74300
O1713       O  0.63548268  0.55186086  0.79591056    -0.39100
O1714       O  0.67465261  0.56514587  0.82910103    -0.39100
O1715       O  0.59563920  0.92701432  0.86687302    -0.39800
O1716       O  0.62849903  0.92028595  0.90983008    -0.39800
C1717       C  0.86227131  0.02899252  0.61815338    -0.12100
C1718       C  0.88103738  0.49875467  0.61346639     0.04900
C1719       C  0.86767241  0.47054148  0.62534305    -0.07400
C1720       C  0.84502675  0.47093739  0.65161624    -0.08200
C1721       C  0.82841152  0.00218953  0.65893862    -0.02700
C1722       C  0.83854990  0.02988986  0.64332241     0.04100
N1723       N  0.82483685  0.05894662  0.65284682     0.66600
H1724       H  0.86995278  0.05058117  0.60644747     0.15500
H1725       H  0.83446840  0.44933387  0.65998875     0.15200
N1726       N  0.87596083  0.44125094  0.61043261     0.74300
O1727       O  0.83566034  0.07404381  0.67842801    -0.39100
O1728       O  0.81602040  0.56969932  0.65979830    -0.39100
O1729       O  0.89586289  0.92924514  0.63326732    -0.39800
O1730       O  0.85984219  0.43044445  0.58560583    -0.39800
C1731       C  0.83489469  0.02025759  0.85972628    -0.12100
C1732       C  0.83117072  0.99293098  0.84050475     0.04900
C1733       C  0.85139537  0.96773406  0.84631801    -0.07400
C1734       C  0.87447656  0.96985602  0.87222473    -0.08200
C1735       C  0.87813322  0.99718450  0.89200628    -0.02700
C1736       C  0.85829316  0.02275840  0.88506189     0.04100
N1737       N  0.86096998  0.05123161  0.90393688     0.66600
H1738       H  0.81958917  0.03985732  0.85482338     0.15500
H1739       H  0.87123668  0.44688820  0.90040110     0.15200
N1740       N  0.84874055  0.94004136  0.82593844     0.74300
O1741       O  0.87708172  0.07291632  0.89111046    -0.39100
O1742       O  0.86104774  0.57113784  0.91441475    -0.39100
O1743       O  0.86469207  0.93700578  0.79829252    -0.39800
O1744       O  0.80119351  0.42852231  0.86858427    -0.39800
C1745       C  0.52643767  0.64168075  0.61339762    -0.12100
C1746       C  0.50130546  0.62088482  0.61169135     0.04900
C1747       C  0.96904309  0.63586341  0.61751451    -0.07400
C1748       C  0.96941611  0.65982312  0.64227990    -0.08200
C1749       C  0.99753296  0.67181751  0.65476559    -0.02700
C1750       C  0.52649416  0.66639622  0.63738152     0.04100
N1751       N  0.55225288  0.68731023  0.63758035     0.66600
H1752       H  0.54595470  0.63913457  0.59554271     0.15500
H1753       H  0.94754434  0.66866716  0.65252837     0.15200
N1754       N  0.93949227  0.62390714  0.60689473     0.74300
O1755       O  0.57618542  0.68064647  0.65533667    -0.39100
O1756       O  0.55390520  0.70813697  0.61433237    -0.39100
O1757       O  0.92554487  0.60494511  0.62664718    -0.39800
O1758       O  0.92438710  0.63769577  0.58307052    -0.39800
C1759       C  0.52656184  0.66543257  0.86355383    -0.12100
C1760       C  0.99518228  0.66282547  0.83764845     0.04900
C1761       C  0.96818035  0.64753327  0.84930878    -0.07400
C1762       C  0.97059919  0.62404398  0.87454220    -0.08200
C1763       C  0.99966738  0.61545010  0.88865664    -0.02700
C1764       C  0.52777787  0.64212391  0.88920338     0.04100
N1765       N  0.55522285  0.63952468  0.91027381     0.66600
H1766       H  0.54668627  0.68013386  0.85940137     0.15500
H1767       H  0.94944177  0.61294336  0.88360639     0.15200
N1768       N  0.93811506  0.65601365  0.83627400     0.74300
O1769       O  0.57821157  0.62418941  0.89891983    -0.39100
O1770       O  0.55908687  0.65807921  0.93550432    -0.39100
O1771       O  0.92501813  0.63898658  0.81378453    -0.39800
O1772       O  0.92216344  0.67596726  0.85261266    -0.39800
C1773       C  0.96580523  0.87012318  0.62491627    -0.12100
C1774       C  0.49925794  0.87960342  0.61062352     0.04900
C1775       C  0.52561606  0.86205465  0.62105646    -0.07400
C1776       C  0.52237970  0.83856338  0.64616292    -0.08200
C1777       C  0.98970200  0.83381430  0.66563841    -0.02700
C1778       C  0.96285029  0.84644333  0.64989068     0.04100
N1779       N  0.93250335  0.83543973  0.65884920     0.66600
H1780       H  0.94484912  0.87912058  0.61265765     0.15500
H1781       H  0.54266389  0.82513178  0.65390758     0.15200
N1782       N  0.55579864  0.86736677  0.60647786     0.74300
O1783       O  0.92039517  0.81416080  0.64073674    -0.39100
O1784       O  0.91538657  0.85160602  0.67868729    -0.39100
O1785       O  0.57701855  0.87771567  0.62611395    -0.39800
O1786       O  0.56327587  0.85391954  0.57827902    -0.39800
C1787       C  0.96723560  0.83605669  0.86111269    -0.12100
C1788       C  0.99559605  0.82472733  0.84813935     0.04900
C1789       C  0.52469150  0.84311324  0.85907858    -0.07400
C1790       C  0.52367188  0.86673501  0.88411427    -0.08200
C1791       C  0.99476072  0.87218611  0.89927566    -0.02700
C1792       C  0.96650055  0.85955093  0.88646513     0.04100
N1793       N  0.93683179  0.87021229  0.89862352     0.66600
H1794       H  0.94551085  0.82689321  0.85102594     0.15500
H1795       H  0.54542150  0.87453243  0.89549832     0.15200
N1796       N  0.55420138  0.83059877  0.84890272     0.74300
O1797       O  0.92182923  0.88975363  0.88054813    -0.39100
O1798       O  0.92283233  0.85508982  0.92221006    -0.39100
O1799       O  0.57116576  0.84570572  0.82793314    -0.39800
O1800       O  0.56612019  0.80897466  0.86683921    -0.39100
loop_ 
_geom_bond_atom_site_label_1 
_geom_bond_atom_site_label_2 
_geom_bond_distance 
_geom_bond_site_symmetry_2 
_ccdc_geom_bond_type 
N1            N2   1.320       .  A
N1          N457   1.315   1_545  A
N1          Mn30   2.205       .  S
N2          C459   1.354   1_545  A
N3            N4   1.318       .  A
N3          N455   1.314       .  A
N3          Mn19   2.187       .  S
N4          C460   1.351       .  A
N5            N6   1.321       .  A
N5          N453   1.315   1_545  A
N5         Mn255   2.198       .  S
N6           C10   1.354       .  A
N7            N8   1.320       .  A
N7          N451   1.316       .  A
N7         Mn244   2.199       .  S
N8            C9   1.352       .  A
C9          N452   1.357       .  A
C9          C160   1.486       .  S
C10         N454   1.352   1_545  A
C10         C143   1.481       .  S
N11          N12   1.325       .  A
N11         N917   1.315   1_455  A
N11         Mn41   2.213       .  S
N12          C20   1.358       .  A
N13          N14   1.318       .  A
N13         N915   1.314       .  A
N13        Mn244   2.184       .  S
N14          C21   1.350       .  A
N15          N16   1.321       .  A
N15         N913   1.315   1_455  A
N15        Mn266   2.215       .  S
N16         C921   1.357   1_455  A
N17          N18   1.316       .  A
N17         N911   1.315       .  A
N17         Mn19   2.198       .  S
N18         C920   1.352       .  A
Mn19        N232   2.197   1_554  S
Mn19        N238   2.184   1_554  S
Mn19      Cl1393   2.543       .  S
C20         N918   1.350   1_455  A
C20         C199   1.482   1_455  S
C21         N916   1.355       .  A
C21         C216   1.478       .  S
N22          N23   1.318       .  A
N22         N928   1.316       .  A
N22        Mn255   2.188       .  S
N23         C931   1.350       .  A
N24          N25   1.321       .  A
N24         N926   1.314   1_455  A
N24         Mn42   2.199       .  S
N25         C932   1.354   1_455  A
N26          N27   1.318       .  A
N26         N924   1.315       .  A
N26         Mn30   2.201       .  S
N27          C32   1.353       .  A
N28          N29   1.323       .  A
N28         N922   1.316   1_455  A
N28        Mn267   2.217       .  S
N29          C31   1.357   1_455  A
Mn30        N230   2.201       .  S
Mn30        N247   2.201       .  S
Mn30      Cl1168   2.546   1_545  S
C31         N923   1.351       .  A
C31         C171   1.487       .  S
C32         N925   1.354       .  A
C32         C188   1.483       .  S
N33          N34   1.321       .  A
N33         N489   1.317       .  A
N33        Mn266   2.204       .  S
N34          C44   1.354       .  A
N35          N36   1.320       .  A
N35         N487   1.316   1_545  A
N35        Mn267   2.205       .  S
N36          C45   1.354   1_545  A
N37          N38   1.321       .  A
N37         N485   1.316       .  A
N37         Mn41   2.215       .  S
N38         C495   1.355       .  A
N39          N40   1.321       .  A
N39         N483   1.316   1_545  A
N39         Mn42   2.210       .  S
N40         C494   1.355   1_545  A
Mn41        N240   2.223   1_554  S
Mn41        N258   2.204   1_554  S
Mn41       Cl493   2.556       .  S
Mn42        N253   2.220       .  S
Mn42        N260   2.199       .  S
Mn42       Cl268   2.548   1_445  S
Cl43      Mn1369   2.542       .  S
Cl43      Mn1155   2.549   1_564  S
Cl43       Mn491   2.552   1_655  S
Cl43       Mn267   2.546   1_665  S
C44         N490   1.356       .  A
C44         C129   1.488       .  S
C45         N488   1.354       .  A
C45         C115   1.486       .  S
N46          C51   1.350       .  A
N46          C50   1.350       .  A
N46          H78   1.035       .  S
N47          C54   1.351       .  A
N47          C55   1.350       .  A
N48          C53   1.353       .  A
N48          C52   1.352       .  A
N48          H79   1.035       .  S
N49          C56   1.350       .  A
N49          C57   1.351       .  A
C50          C58   1.386       .  A
C50          C66   1.410       .  A
C51          C67   1.412       .  A
C51          C59   1.388       .  A
C52          C60   1.387       .  A
C52          C69   1.415       .  A
C53          C68   1.417       .  A
C53          C61   1.388       .  A
C54          C66   1.411       .  A
C54          C62   1.386       .  A
C55          C69   1.412       .  A
C55          C63   1.387       .  A
C56          C64   1.386       .  A
C56          C67   1.412       .  A
C57          C65   1.386       .  A
C57          C68   1.413       .  A
C58          C59   1.374       .  A
C58          H70   1.082       .  S
C59          H71   1.082       .  S
C60          C61   1.376       .  A
C60          H72   1.082       .  S
C61          H73   1.082       .  S
C62          C63   1.373       .  A
C62          H74   1.082       .  S
C63          H75   1.082       .  S
C64          C65   1.373       .  A
C64          H76   1.082       .  S
C65          H77   1.082       .  S
C66         C213   1.479       .  S
C67         C202   1.476       .  S
C68         C174   1.485       .  S
C69         C185   1.481       .  S
N80          C85   1.352       .  A
N80          C84   1.352       .  A
N80         H112   1.037       .  S
N81          C88   1.351       .  A
N81          C89   1.351       .  A
N82          C87   1.351       .  A
N82          C86   1.350       .  A
N82         H113   1.037       .  S
N83          C90   1.349       .  A
N83          C91   1.349       .  A
C84          C92   1.386       .  A
C84         C100   1.412       .  A
C85         C101   1.415       .  A
C85          C93   1.388       .  A
C86          C94   1.387       .  A
C86         C103   1.410       .  A
C87         C102   1.411       .  A
C87          C95   1.387       .  A
C88         C100   1.412       .  A
C88          C96   1.386       .  A
C89         C103   1.412       .  A
C89          C97   1.385       .  A
C90          C98   1.386       .  A
C90         C101   1.410       .  A
C91          C99   1.387       .  A
C91         C102   1.410       .  A
C92          C93   1.375       .  A
C92         H104   1.082       .  S
C93         H105   1.082       .  S
C94          C95   1.375       .  A
C94         H106   1.082       .  S
C95         H107   1.082       .  S
C96          C97   1.374       .  A
C96         H108   1.082       .  S
C97         H109   1.082       .  S
C98          C99   1.373       .  A
C98         H110   1.082       .  S
C99         H111   1.083       .  S
C100        C132   1.484       .  S
C101        C118   1.481       .  S
C102        C146   1.478       .  S
C103        C157   1.482       .  S
C114        C115   1.408   1_545  A
C114        C119   1.400       .  A
C114        H121   1.083       .  S
C115        C566   1.417       .  A
C116        C117   1.397       .  A
C116        C565   1.416       .  A
C116        N123   1.426       .  S
C117        C118   1.397       .  A
C117        H122   1.084       .  S
C118        C569   1.405       .  A
C119        C568   1.403       .  A
C119        N120   1.428       .  S
N120        O124   1.262       .  A
N120        O125   1.262       .  A
N123        O127   1.260       .  A
N123        O126   1.262       .  A
C128        C133   1.400       .  A
C128        C579   1.408   1_545  A
C128        H135   1.083       .  S
C129        C130   1.417       .  A
C129        C578   1.408       .  A
C130        C131   1.401       .  A
C130        N137   1.428       .  S
C131        C132   1.398       .  A
C131        H136   1.084       .  S
C132        C583   1.406       .  A
C133        C582   1.404   1_545  A
C133        N134   1.430       .  S
N134        O138   1.262       .  A
N134        O139   1.262       .  A
N137        O141   1.262       .  A
N137        O140   1.262       .  A
C142        C147   1.400       .  A
C142        C593   1.406       .  A
C142        H149   1.083       .  S
C143        C144   1.416   1_545  A
C143        C592   1.409       .  A
C144        C145   1.392       .  A
C144        N151   1.428       .  S
C145        C596   1.394   1_565  A
C145        H150   1.084       .  S
C146        C147   1.405       .  A
C146        C595   1.397       .  A
C147        N148   1.429       .  S
N148        O152   1.262       .  A
N148        O603   1.262       .  A
N151        O155   1.262       .  A
N151        O604   1.262       .  A
O153        N598   1.262       .  A
O154        N601   1.262       .  A
C156        C157   1.399       .  A
C156        C161   1.399       .  A
C156        H163   1.084       .  S
C157        C158   1.405       .  A
C158        C159   1.402       .  A
C158        N165   1.429       .  S
C159        C160   1.410       .  A
C159        H614   1.083       .  S
C160        C161   1.414       .  A
C161        N162   1.428       .  S
N162        O166   1.262       .  A
N162        O617   1.262       .  A
H164        C609   1.083       .  S
N165        O619   1.262       .  A
N165        O168   1.262       .  A
O167        N612   1.262       .  A
O169        N615   1.262       .  A
C170        C171   1.405   1_455  A
C170        C175   1.401       .  A
C170        H177   1.084       .  S
C171       C1072   1.418       .  A
C172        C173   1.399       .  A
C172       C1071   1.419       .  A
C172        N179   1.429       .  S
C173        C174   1.398       .  A
C173        H178   1.084       .  S
C174       C1075   1.408       .  A
C175       C1074   1.408   1_455  A
C175        N176   1.428       .  S
N176        O180   1.262       .  A
N176        O181   1.262       .  A
N179        O183   1.262       .  A
N179        O182   1.262       .  A
C184        C189   1.400       .  A
C184       C1085   1.400   1_455  A
C184        H191   1.084       .  S
C185        C186   1.405       .  A
C185       C1084   1.399       .  A
C186        C187   1.398       .  A
C186        N193   1.429       .  S
C187        C188   1.407       .  A
C187        H192   1.083       .  S
C188       C1089   1.415       .  A
C189       C1088   1.415   1_455  A
C189        N190   1.429       .  S
N190        O194   1.262       .  A
N190        O195   1.262       .  A
N193        O197   1.262       .  A
N193        O196   1.262       .  A
C198        C203   1.395       .  A
C198       C1099   1.406       .  A
C198        H205   1.083       .  S
C199        C200   1.412   1_655  A
C199       C1098   1.407       .  A
C200        C201   1.401       .  A
C200        N207   1.427       .  S
C201       C1102   1.401   1_455  A
C201        H206   1.084       .  S
C202        C203   1.404       .  A
C202       C1101   1.398       .  A
C203        N204   1.428       .  S
N204        O208   1.262       .  A
N204        O209   1.262       .  A
N207        O211   1.261       .  A
N207        O210   1.262       .  A
C212        C213   1.398       .  A
C212        C217   1.397       .  A
C212        H219   1.084       .  S
C213       C1114   1.406       .  A
C214        C215   1.399       .  A
C214       C1113   1.406   1_455  A
C214        N221   1.428       .  S
C215       C1116   1.405   1_455  A
C215        H220   1.084       .  S
C216        C217   1.416       .  A
C216       C1115   1.404       .  A
C217        N218   1.429       .  S
N218        O222   1.262       .  A
N218        O223   1.262       .  A
N221        O225   1.262       .  A
N221        O224   1.262       .  A
N226        N227   1.320       .  A
N226        N682   1.314   1_545  A
N226       Mn255   2.199   1_556  S
N227        C684   1.354   1_545  A
N228        N680   1.315       .  A
N228        N229   1.316       .  A
N228       Mn244   2.182       .  S
N229        C685   1.349       .  A
N230        N678   1.314   1_545  A
N230        N231   1.321       .  A
N231        C235   1.355   1_545  A
N232        N676   1.315       .  A
N232        N233   1.320       .  A
N233        C234   1.353       .  A
C234        N677   1.354       .  A
C234        C385   1.483       .  S
C235        N679   1.353       .  A
C235        C368   1.483       .  S
N236       N1142   1.315   1_455  A
N236        N237   1.321       .  A
N236       Mn266   2.202       .  S
N237        C245   1.354   1_455  A
N238        N239   1.318       .  A
N238       N1140   1.314       .  A
N239        C246   1.350       .  A
N240       N1138   1.315   1_455  A
N240        N241   1.323       .  A
N241       C1146   1.358   1_455  A
N242       N1136   1.315       .  A
N242        N243   1.320       .  A
N242       Mn244   2.203       .  S
N243       C1145   1.354       .  A
Mn244     Cl1618   2.541       .  S
C245       N1143   1.353       .  A
C245        C424   1.480       .  S
C246       N1141   1.357       .  A
C246        C441   1.483       .  S
N247        N248   1.321       .  A
N247       N1153   1.316       .  A
N248       C1156   1.353       .  A
N249       N1151   1.315   1_455  A
N249        N250   1.321       .  A
N249       Mn267   2.199   1_556  S
N250       C1157   1.353       .  A
N251       N1149   1.315       .  A
N251        N252   1.316       .  A
N251       Mn255   2.194   1_556  S
N252        C257   1.352       .  A
N253       N1147   1.316   1_455  A
N253        N254   1.322       .  A
N254        C256   1.357   1_455  A
Mn255      Cl943   2.539       .  S
C256       N1148   1.353       .  A
C256        C396   1.492       .  S
C257       N1150   1.354       .  A
C257        C413   1.479       .  S
N258        N259   1.320       .  A
N258        N714   1.316       .  A
N259        C269   1.354       .  A
N260        N261   1.320       .  A
N260        N712   1.317   1_545  A
N261        C270   1.353       .  A
N262        N710   1.316       .  A
N262        N263   1.319       .  A
N262       Mn266   2.204       .  S
N263        C720   1.352       .  A
N264        N708   1.316   1_545  A
N264        N265   1.319       .  A
N264       Mn267   2.208   1_556  S
N265        C719   1.354   1_545  A
Mn266      Cl718   2.550   1_455  S
Cl268     Mn1594   2.541       .  S
Cl268      Mn930   2.548   1_565  S
Cl268      Mn716   2.554   1_655  S
C269        N715   1.355       .  A
C269        C354   1.486       .  S
C270        N713   1.355   1_545  A
C270        C340   1.487       .  S
N271        C276   1.352       .  A
N271        C275   1.354       .  A
N271        H303   1.036       .  S
N272        C279   1.351       .  A
N272        C280   1.350       .  A
N273        C278   1.354       .  A
N273        C277   1.352       .  A
N273        H304   1.036       .  S
N274        C281   1.352       .  A
N274        C282   1.353       .  A
C275        C283   1.387       .  A
C275        C291   1.415       .  A
C276        C292   1.415       .  A
C276        C284   1.387       .  A
C277        C285   1.387       .  A
C277        C294   1.414       .  A
C278        C293   1.415       .  A
C278        C286   1.387       .  A
C279        C291   1.411       .  A
C279        C287   1.386       .  A
C280        C294   1.412       .  A
C280        C288   1.387       .  A
C281        C289   1.387       .  A
C281        C292   1.418       .  A
C282        C290   1.385       .  A
C282        C293   1.415       .  A
C283        C284   1.375       .  A
C283        H295   1.082       .  S
C284        H296   1.082       .  S
C285        C286   1.374       .  A
C285        H297   1.082       .  S
C286        H298   1.082       .  S
C287        C288   1.373       .  A
C287        H299   1.082       .  S
C288        H300   1.082       .  S
C289        C290   1.374       .  A
C289        H301   1.082       .  S
C290        H302   1.082       .  S
C291        C438   1.483       .  S
C292        C427   1.489       .  S
C293        C399   1.490       .  S
C294        C410   1.479       .  S
N305        C310   1.351       .  A
N305        C309   1.351       .  A
N305        H337   1.035       .  S
N306        C313   1.350       .  A
N306        C314   1.350       .  A
N307        C312   1.350       .  A
N307        C311   1.350       .  A
N307        H338   1.035       .  S
N308        C315   1.350       .  A
N308        C316   1.350       .  A
C309        C317   1.386       .  A
C309        C325   1.412       .  A
C310        C326   1.414       .  A
C310        C318   1.388       .  A
C311        C319   1.388       .  A
C311        C328   1.411       .  A
C312        C327   1.410       .  A
C312        C320   1.387       .  A
C313        C325   1.412       .  A
C313        C321   1.387       .  A
C314        C328   1.411       .  A
C314        C322   1.385       .  A
C315        C323   1.386       .  A
C315        C326   1.412       .  A
C316        C324   1.387       .  A
C316        C327   1.412       .  A
C317        C318   1.373       .  A
C317        H329   1.082       .  S
C318        H330   1.082       .  S
C319        C320   1.373       .  A
C319        H331   1.082       .  S
C320        H332   1.082       .  S
C321        C322   1.373       .  A
C321        H333   1.082       .  S
C322        H334   1.082       .  S
C323        C324   1.373       .  A
C323        H335   1.082       .  S
C324        H336   1.082       .  S
C325        C357   1.479       .  S
C326        C343   1.481       .  S
C327        C371   1.478       .  S
C328        C382   1.479       .  S
C339        C340   1.411       .  A
C339        C344   1.402       .  A
C339        H346   1.083       .  S
C340        C791   1.415   1_545  A
C341        C790   1.418       .  A
C341        C342   1.398       .  A
C341        N348   1.426       .  S
C342        C343   1.395       .  A
C342        H347   1.084       .  S
C343        C794   1.405       .  A
C344        C793   1.404       .  A
C344        N345   1.429       .  S
N345        O349   1.262       .  A
N345        O350   1.262       .  A
N348        O352   1.261       .  A
N348        O351   1.262       .  A
C353        C804   1.408   1_545  A
C353        C358   1.399       .  A
C353        H360   1.083       .  S
C354        C803   1.409       .  A
C354        C355   1.417       .  A
C355        C356   1.398       .  A
C355        N362   1.428       .  S
C356        C357   1.397       .  A
C356        H361   1.084       .  S
C357        C808   1.404       .  A
C358        C807   1.404   1_545  A
C358        N359   1.429       .  S
N359        O363   1.262       .  A
N359        O364   1.262       .  A
N362        O366   1.262       .  A
N362        O365   1.262       .  A
C367        C818   1.407       .  A
C367        C372   1.401       .  A
C367        H374   1.084       .  S
C368        C817   1.408   1_565  A
C368        C369   1.417       .  A
C369        C370   1.398       .  A
C369        N376   1.428       .  S
C370        C821   1.397   1_565  A
C370        H375   1.084       .  S
C371        C820   1.395       .  A
C371        C372   1.405       .  A
C372        N373   1.429       .  S
N373        O377   1.262       .  A
N373        O828   1.262       .  A
N376        O380   1.262       .  A
N376        O829   1.262       .  A
O378        N823   1.262       .  A
O379        N826   1.262       .  A
C381        C382   1.398       .  A
C381        C386   1.396       .  A
C381        H388   1.084       .  S
C382        C383   1.405       .  A
C383        C384   1.402       .  A
C383        N390   1.430       .  S
C384        C385   1.410       .  A
C384        H839   1.083       .  S
C385        C386   1.414       .  A
C386        N387   1.428       .  S
N387        O391   1.262       .  A
N387        O842   1.262       .  A
H389        C834   1.083       .  S
N390        O844   1.262       .  A
N390        O393   1.262       .  A
O392        N837   1.262       .  A
O394        N840   1.262       .  A
C395        C396   1.407   1_455  A
C395        C400   1.402       .  A
C395        H402   1.083       .  S
C396       C1297   1.418       .  A
C397       C1296   1.418       .  A
C397        C398   1.403       .  A
C397        N404   1.429       .  S
C398        C399   1.400       .  A
C398        H403   1.084       .  S
C399       C1300   1.407       .  A
C400       C1299   1.408   1_455  A
C400        N401   1.428       .  S
N401        O405   1.262       .  A
N401        O406   1.262       .  A
N404        O408   1.262       .  A
N404        O407   1.262       .  A
C409       C1310   1.400   1_455  A
C409        C414   1.400       .  A
C409        H416   1.084       .  S
C410       C1309   1.400       .  A
C410        C411   1.404       .  A
C411        C412   1.395       .  A
C411        N418   1.428       .  S
C412        C413   1.406       .  A
C412        H417   1.084       .  S
C413       C1314   1.415       .  A
C414       C1313   1.415       .  A
C414        N415   1.429       .  S
N415        O419   1.262       .  A
N415        O420   1.262       .  A
N418        O422   1.262       .  A
N418        O421   1.262       .  A
C423       C1324   1.404       .  A
C423        C428   1.400       .  A
C423        H430   1.084       .  S
C424       C1323   1.405       .  A
C424        C425   1.413   1_655  A
C425        C426   1.397       .  A
C425        N432   1.427       .  S
C426       C1327   1.400   1_455  A
C426        H431   1.084       .  S
C427       C1326   1.402       .  A
C427        C428   1.410       .  A
C428        N429   1.429       .  S
N429        O433   1.262       .  A
N429        O434   1.262       .  A
N432        O436   1.262       .  A
N432        O435   1.261       .  A
C437        C438   1.398       .  A
C437        C442   1.399       .  A
C437        H444   1.084       .  S
C438       C1339   1.407       .  A
C439       C1338   1.409   1_455  A
C439        C440   1.401       .  A
C439        N446   1.428       .  S
C440       C1341   1.405   1_455  A
C440        H445   1.084       .  S
C441       C1340   1.406       .  A
C441        C442   1.417       .  A
C442        N443   1.429       .  S
N443        O447   1.262       .  A
N443        O448   1.262       .  A
N446        O450   1.262       .  A
N446        O449   1.262       .  A
N451        N452   1.323       .  A
N451       Mn480   2.216       .  S
N453        N454   1.317       .  A
N453       Mn469   2.195       .  S
N455        N456   1.321       .  A
N455       Mn705   2.206       .  S
N456        C460   1.355       .  A
N457        N458   1.319       .  A
N457       Mn694   2.196       .  S
N458        C459   1.353       .  A
C459        C610   1.483       .  S
C460        C593   1.478       .  S
N461       N1367   1.315   1_455  A
N461        N462   1.321       .  A
N461       Mn491   2.201       .  S
N462        C470   1.354   1_455  A
N463        N464   1.320       .  A
N463       N1365   1.315       .  A
N463       Mn694   2.200       .  S
N464        C471   1.353       .  A
N465       N1363   1.315   1_455  A
N465        N466   1.324       .  A
N465       Mn716   2.227       .  S
N466       C1371   1.359   1_455  A
N467       N1361   1.315       .  A
N467        N468   1.320       .  A
N467       Mn469   2.204       .  S
N468       C1370   1.354       .  A
Mn469       N682   2.192   1_554  S
Mn469       N688   2.191   1_554  S
Mn469      Cl943   2.547   1_565  S
C470       N1368   1.353       .  A
C470        C649   1.483       .  S
C471       N1366   1.356       .  A
C471        C666   1.489       .  S
N472        N473   1.320       .  A
N472       N1378   1.316       .  A
N472       Mn705   2.194       .  S
N473       C1381   1.351       .  A
N474       N1376   1.316   1_455  A
N474        N475   1.321       .  A
N474       Mn492   2.203       .  S
N475       C1382   1.354   1_455  A
N476       N1374   1.316       .  A
N476        N477   1.322       .  A
N476       Mn480   2.222       .  S
N477        C482   1.358       .  A
N478       N1372   1.316   1_455  A
N478        N479   1.323       .  A
N478       Mn717   2.219       .  S
N479        C481   1.358       .  A
Mn480       N680   2.216       .  S
Mn480       N697   2.205       .  S
Mn480     Cl1618   2.551       .  S
C481       N1373   1.351   1_455  A
C481        C621   1.486       .  S
C482       N1375   1.352       .  A
C482        C638   1.490       .  S
N483        N484   1.319       .  A
N483       Mn716   2.199       .  S
N484        C494   1.352       .  A
N485        N486   1.321       .  A
N485       Mn717   2.202       .  S
N486        C495   1.354       .  A
N487        N488   1.321       .  A
N487       Mn491   2.206       .  S
N489        N490   1.322       .  A
N489       Mn492   2.218       .  S
Mn491       N690   2.213   1_554  S
Mn491       N708   2.204   1_554  S
Mn492       N703   2.229       .  S
Mn492       N710   2.215       .  S
Mn492      Cl718   2.551   1_455  S
Cl493      Mn919   2.538   1_455  S
Cl493     Mn1605   2.548   1_455  S
Cl493      Mn717   2.546       .  S
C494        C579   1.484       .  S
C495        C565   1.488       .  S
N496        C501   1.353       .  A
N496        C500   1.354       .  A
N496        H528   1.035       .  S
N497        C504   1.353       .  A
N497        C505   1.352       .  A
N498        C503   1.355       .  A
N498        C502   1.354       .  A
N498        H529   1.033       .  S
N499        C506   1.352       .  A
N499        C507   1.352       .  A
C500        C508   1.387       .  A
C500        C516   1.416       .  A
C501        C517   1.416       .  A
C501        C509   1.387       .  A
C502        C510   1.387       .  A
C502        C519   1.420       .  A
C503        C518   1.421       .  A
C503        C511   1.388       .  A
C504        C516   1.415       .  A
C504        C512   1.385       .  A
C505        C519   1.418       .  A
C505        C513   1.387       .  A
C506        C514   1.387       .  A
C506        C517   1.417       .  A
C507        C515   1.386       .  A
C507        C518   1.416       .  A
C508        C509   1.374       .  A
C508        H520   1.082       .  S
C509        H521   1.082       .  S
C510        C511   1.376       .  A
C510        H522   1.082       .  S
C511        H523   1.082       .  S
C512        C513   1.372       .  A
C512        H524   1.082       .  S
C513        H525   1.082       .  S
C514        C515   1.373       .  A
C514        H526   1.082       .  S
C515        H527   1.082       .  S
C516        C663   1.488       .  S
C517        C652   1.487       .  S
C518        C624   1.490       .  S
C519        C635   1.488       .  S
N530        C535   1.352   1_545  A
N530        C534   1.350   1_545  A
N530        H562   1.032       .  S
N531        C538   1.350       .  A
N531        C539   1.351       .  A
N532        C537   1.350       .  A
N532        C536   1.351   1_545  A
N532        H563   1.032       .  S
N533        C540   1.349       .  A
N533        C541   1.349       .  A
C534        C542   1.387       .  A
C534        C550   1.413       .  A
C535        C551   1.414   1_565  A
C535        C543   1.388       .  A
C536        C544   1.387       .  A
C536        C553   1.411       .  A
C537        C552   1.413       .  A
C537        C545   1.388   1_545  A
C538        C550   1.413       .  A
C538        C546   1.387       .  A
C539        C553   1.412       .  A
C539        C547   1.386       .  A
C540        C548   1.387       .  A
C540        C551   1.412       .  A
C541        C549   1.386       .  A
C541        C552   1.411       .  A
C542        C543   1.374       .  A
C542        H554   1.082       .  S
C543        H555   1.082       .  S
C544        C545   1.372       .  A
C544        H556   1.082       .  S
C545        H557   1.082       .  S
C546        C547   1.372       .  A
C546        H558   1.082   1_565  S
C547        H559   1.082       .  S
C548        C549   1.371       .  A
C548        H560   1.082       .  S
C549        H561   1.082       .  S
C550        C582   1.477       .  S
C551        C568   1.479       .  S
C552        C596   1.474       .  S
C553        C607   1.478       .  S
C564        C565   1.410       .  A
C564        C569   1.403       .  A
C564        H571   1.083       .  S
C566        C567   1.398       .  A
C566        N573   1.426       .  S
C567        C568   1.396   1_565  A
C567        H572   1.084       .  S
C569        N570   1.430       .  S
N570        O574   1.262       .  A
N570        O575   1.262       .  A
N573        O577   1.260       .  A
N573        O576   1.262       .  A
C578        C583   1.401       .  A
C578        H585   1.083       .  S
C579        C580   1.417       .  A
C580        C581   1.397       .  A
C580        N587   1.428       .  S
C581        C582   1.396       .  A
C581        H586   1.084       .  S
C583        N584   1.429       .  S
N584        O588   1.262       .  A
N584        O589   1.262       .  A
N587        O591   1.262       .  A
N587        O590   1.262       .  A
C592        C597   1.401       .  A
C592        H599   1.083       .  S
C593        C594   1.415       .  A
C594        C595   1.396       .  A
C594        N601   1.429       .  S
C595        H600   1.084       .  S
C596        C597   1.404       .  A
C597        N598   1.430       .  S
N598        O602   1.262       .  A
N601        O605   1.262       .  A
C606        C607   1.397   1_545  A
C606        C611   1.396       .  A
C606        H613   1.084       .  S
C607        C608   1.404       .  A
C608        C609   1.400       .  A
C608        N615   1.429       .  S
C609        C610   1.409       .  A
C610        C611   1.415   1_565  A
C611        N612   1.429       .  S
N612        O616   1.262       .  A
N615        O618   1.262       .  A
C620        C621   1.406       .  A
C620        C625   1.403       .  A
C620        H627   1.083       .  S
C621       C1522   1.416   1_455  A
C622       C1521   1.416       .  A
C622        C623   1.401       .  A
C622        N629   1.428       .  S
C623        C624   1.401       .  A
C623        H628   1.084       .  S
C624       C1525   1.409       .  A
C625       C1524   1.409       .  A
C625        N626   1.428       .  S
N626        O630   1.262       .  A
N626        O631   1.262       .  A
N629        O633   1.262       .  A
N629        O632   1.261       .  A
C634       C1535   1.400   1_455  A
C634        C639   1.400       .  A
C634        H641   1.084       .  S
C635       C1534   1.400       .  A
C635        C636   1.407       .  A
C636        C637   1.400       .  A
C636        N643   1.428       .  S
C637        C638   1.406       .  A
C637        H642   1.083       .  S
C638       C1539   1.419       .  A
C639       C1538   1.416   1_455  A
C639        N640   1.428       .  S
N640        O644   1.262       .  A
N640        O645   1.262       .  A
N643        O647   1.262       .  A
N643        O646   1.262       .  A
C648       C1549   1.403       .  A
C648        C653   1.400       .  A
C648        H655   1.084       .  S
C649       C1548   1.407       .  A
C649        C650   1.415   1_655  A
C650        C651   1.396       .  A
C650        N657   1.426       .  S
C651       C1552   1.396   1_455  A
C651        H656   1.084       .  S
C652       C1551   1.401       .  A
C652        C653   1.410       .  A
C653        N654   1.429       .  S
N654        O658   1.261       .  A
N654        O659   1.262       .  A
N657        O661   1.262       .  A
N657        O660   1.260       .  A
C662        C663   1.399       .  A
C662        C667   1.400       .  A
C662        H669   1.084       .  S
C663       C1564   1.407       .  A
C664       C1563   1.409   1_455  A
C664        C665   1.403       .  A
C664        N671   1.428       .  S
C665       C1566   1.406   1_455  A
C665        H670   1.083       .  S
C666       C1565   1.408       .  A
C666        C667   1.417       .  A
C667        N668   1.429       .  S
N668        O672   1.262       .  A
N668        O673   1.262       .  A
N671        O675   1.262       .  A
N671        O674   1.262       .  A
N676        N677   1.320       .  A
N676       Mn705   2.207   1_556  S
N678        N679   1.319       .  A
N678       Mn694   2.198       .  S
N680        N681   1.323       .  A
N681        C685   1.357       .  A
N682        N683   1.318       .  A
N683        C684   1.352       .  A
C684        C835   1.480       .  S
C685        C818   1.483       .  S
N686       N1592   1.315   1_455  A
N686        N687   1.323       .  A
N686       Mn716   2.208       .  S
N687        C695   1.356   1_455  A
N688        N689   1.320       .  A
N688       N1590   1.314       .  A
N689        C696   1.352       .  A
N690       N1588   1.315   1_455  A
N690        N691   1.321       .  A
N691       C1596   1.356   1_455  A
N692       N1586   1.315       .  A
N692        N693   1.317       .  A
N692       Mn694   2.195       .  S
N693       C1595   1.352       .  A
Mn694     Cl1168   2.547       .  S
C695       N1593   1.353       .  A
C695        C874   1.486       .  S
C696       N1591   1.354       .  A
C696        C891   1.482       .  S
N697        N698   1.321       .  A
N697       N1603   1.317       .  A
N698       C1606   1.352       .  A
N699       N1601   1.315   1_455  A
N699        N700   1.320       .  A
N699       Mn717   2.196   1_556  S
N700       C1607   1.353       .  A
N701       N1599   1.316       .  A
N701        N702   1.321       .  A
N701       Mn705   2.213   1_556  S
N702        C707   1.356       .  A
N703       N1597   1.316   1_455  A
N703        N704   1.324       .  A
N704        C706   1.359   1_455  A
Mn705     Cl1393   2.545       .  S
C706       N1598   1.350       .  A
C706        C846   1.490       .  S
C707       N1600   1.351       .  A
C707        C863   1.484       .  S
N708        N709   1.321       .  A
N709        C719   1.354       .  A
N710        N711   1.323       .  A
N711        C720   1.357       .  A
N712        N713   1.321       .  A
N712       Mn716   2.216       .  S
N714        N715   1.320       .  A
N714       Mn717   2.210   1_556  S
Cl718     Mn1144   2.543       .  S
Cl718     Mn1380   2.549       .  S
C719        C804   1.485       .  S
C720        C790   1.489       .  S
N721        C726   1.351       .  A
N721        C725   1.353       .  A
N721        H753   1.033       .  S
N722        C729   1.352       .  A
N722        C730   1.351       .  A
N723        C728   1.355       .  A
N723        C727   1.353       .  A
N723        H754   1.034       .  S
N724        C731   1.352       .  A
N724        C732   1.353       .  A
C725        C733   1.387       .  A
C725        C741   1.415       .  A
C726        C742   1.416       .  A
C726        C734   1.388       .  A
C727        C735   1.387       .  A
C727        C744   1.418       .  A
C728        C743   1.420       .  A
C728        C736   1.387       .  A
C729        C741   1.414       .  A
C729        C737   1.386       .  A
C730        C744   1.415       .  A
C730        C738   1.387       .  A
C731        C739   1.386       .  A
C731        C742   1.417       .  A
C732        C740   1.386       .  A
C732        C743   1.418       .  A
C733        C734   1.373       .  A
C733        H745   1.082       .  S
C734        H746   1.082       .  S
C735        C736   1.375       .  A
C735        H747   1.082       .  S
C736        H748   1.082       .  S
C737        C738   1.372       .  A
C737        H749   1.082       .  S
C738        H750   1.082       .  S
C739        C740   1.374       .  A
C739        H751   1.082       .  S
C740        H752   1.082       .  S
C741        C888   1.483       .  S
C742        C877   1.482       .  S
C743        C849   1.495       .  S
C744        C860   1.486       .  S
N755        C760   1.351       .  A
N755        C759   1.352   1_545  A
N755        H787   1.034       .  S
N756        C763   1.350       .  A
N756        C764   1.350       .  A
N757        C762   1.351       .  A
N757        C761   1.349       .  A
N757        H788   1.033   1_565  S
N758        C765   1.350       .  A
N758        C766   1.350       .  A
C759        C767   1.386       .  A
C759        C775   1.412       .  A
C760        C776   1.415       .  A
C760        C768   1.388   1_545  A
C761        C769   1.387       .  A
C761        C778   1.412       .  A
C762        C777   1.413   1_565  A
C762        C770   1.388       .  A
C763        C775   1.411       .  A
C763        C771   1.386   1_565  A
C764        C778   1.412       .  A
C764        C772   1.386   1_565  A
C765        C773   1.386       .  A
C765        C776   1.412       .  A
C766        C774   1.387       .  A
C766        C777   1.413       .  A
C767        C768   1.372       .  A
C767        H779   1.082       .  S
C768        H780   1.082       .  S
C769        C770   1.373       .  A
C769        H781   1.082       .  S
C770        H782   1.082       .  S
C771        C772   1.372       .  A
C771        H783   1.082       .  S
C772        H784   1.082       .  S
C773        C774   1.372       .  A
C773        H785   1.082       .  S
C774        H786   1.082       .  S
C775        C807   1.481       .  S
C776        C793   1.479       .  S
C777        C821   1.479       .  S
C778        C832   1.476       .  S
C789        C790   1.408       .  A
C789        C794   1.402       .  A
C789        H796   1.083       .  S
C791        C792   1.395       .  A
C791        N798   1.426       .  S
C792        C793   1.395   1_565  A
C792        H797   1.084       .  S
C794        N795   1.429       .  S
N795        O799   1.262       .  A
N795        O800   1.262       .  A
N798        O802   1.260       .  A
N798        O801   1.261       .  A
C803        C808   1.400       .  A
C803        H810   1.083       .  S
C804        C805   1.417       .  A
C805        C806   1.400       .  A
C805        N812   1.428       .  S
C806        C807   1.398       .  A
C806        H811   1.084       .  S
C808        N809   1.429       .  S
N809        O813   1.262       .  A
N809        O814   1.262       .  A
N812        O816   1.262       .  A
N812        O815   1.262       .  A
C817        C822   1.400       .  A
C817        H824   1.083       .  S
C818        C819   1.418       .  A
C819        C820   1.395       .  A
C819        N826   1.429       .  S
C820        H825   1.084       .  S
C821        C822   1.404       .  A
C822        N823   1.429       .  S
N823        O827   1.262       .  A
N826        O830   1.262       .  A
C831        C832   1.398   1_545  A
C831        C836   1.397       .  A
C831        H838   1.084       .  S
C832        C833   1.404       .  A
C833        C834   1.398       .  A
C833        N840   1.429       .  S
C834        C835   1.409       .  A
C835        C836   1.414   1_565  A
C836        N837   1.429       .  S
N837        O841   1.262       .  A
N840        O843   1.262       .  A
C845        C846   1.406   1_455  A
C845        C850   1.402       .  A
C845        H852   1.083       .  S
C846       C1747   1.419       .  A
C847       C1746   1.415       .  A
C847        C848   1.403       .  A
C847        N854   1.429       .  S
C848        C849   1.402       .  A
C848        H853   1.084       .  S
C849       C1750   1.410       .  A
C850       C1749   1.408   1_455  A
C850        N851   1.428       .  S
N851        O855   1.262       .  A
N851        O856   1.262       .  A
N854        O858   1.262       .  A
N854        O857   1.262       .  A
C859       C1760   1.399   1_455  A
C859        C864   1.399       .  A
C859        H866   1.084       .  S
C860       C1759   1.400       .  A
C860        C861   1.407       .  A
C861        C862   1.399       .  A
C861        N868   1.428       .  S
C862        C863   1.404       .  A
C862        H867   1.084       .  S
C863       C1764   1.417       .  A
C864       C1763   1.417   1_455  A
C864        N865   1.428       .  S
N865        O869   1.262       .  A
N865        O870   1.262       .  A
N868        O872   1.262       .  A
N868        O871   1.262       .  A
C873       C1774   1.407       .  A
C873        C878   1.398       .  A
C873        H880   1.084       .  S
C874       C1773   1.408       .  A
C874        C875   1.414   1_655  A
C875        C876   1.398       .  A
C875        N882   1.425       .  S
C876       C1777   1.398   1_455  A
C876        H881   1.084       .  S
C877       C1776   1.398       .  A
C877        C878   1.406       .  A
C878        N879   1.428       .  S
N879        O883   1.262       .  A
N879        O884   1.262       .  A
N882        O886   1.262       .  A
N882        O885   1.261       .  A
C887        C888   1.400       .  A
C887        C892   1.401       .  A
C887        H894   1.084       .  S
C888       C1789   1.406       .  A
C889       C1788   1.407   1_455  A
C889        C890   1.399       .  A
C889        N896   1.428       .  S
C890       C1791   1.406   1_455  A
C890        H895   1.083       .  S
C891       C1790   1.405       .  A
C891        C892   1.416       .  A
C892        N893   1.429       .  S
N893        O897   1.262       .  A
N893        O898   1.262       .  A
N896        O900   1.262       .  A
N896        O899   1.262       .  A
N901        N902   1.318       .  A
N901       N1357   1.315   1_545  A
N901       Mn930   2.196       .  S
N902       C1359   1.352   1_545  A
N903       N1355   1.314       .  A
N903        N904   1.315       .  A
N903       Mn919   2.179       .  S
N904       C1360   1.348       .  A
N905       N1353   1.314   1_545  A
N905        N906   1.321       .  A
N905      Mn1155   2.197   1_554  S
N906        C910   1.354       .  A
N907       N1351   1.315       .  A
N907        N908   1.320       .  A
N907      Mn1144   2.197       .  S
N908        C909   1.353       .  A
C909       N1352   1.354       .  A
C909       C1060   1.481       .  S
C910       N1354   1.351   1_545  A
C910       C1043   1.478       .  S
N911        N912   1.320       .  A
N911       Mn941   2.191       .  S
N912        C920   1.353       .  A
N913        N914   1.319       .  A
N913      Mn1144   2.186       .  S
N914        C921   1.351       .  A
N915        N916   1.320       .  A
N915      Mn1166   2.203       .  S
N917        N918   1.316       .  A
N917       Mn919   2.195       .  S
Mn919      N1132   2.201   1_554  S
Mn919      N1138   2.183   1_554  S
C920       C1099   1.478       .  S
C921       C1116   1.486       .  S
N922        N923   1.319       .  A
N922      Mn1155   2.195   1_554  S
N924        N925   1.321       .  A
N924       Mn942   2.201       .  S
N926        N927   1.317       .  A
N926       Mn930   2.195       .  S
N927        C932   1.353       .  A
N928        N929   1.323       .  A
N928      Mn1167   2.224       .  S
N929        C931   1.359       .  A
Mn930      N1130   2.197       .  S
Mn930      N1147   2.201       .  S
C931       C1071   1.488       .  S
C932       C1088   1.482       .  S
N933        N934   1.319       .  A
N933       N1389   1.316       .  A
N933      Mn1166   2.197       .  S
N934        C944   1.353       .  A
N935        N936   1.319       .  A
N935       N1387   1.316   1_545  A
N935      Mn1167   2.199       .  S
N936        C945   1.354   1_545  A
N937       N1385   1.316       .  A
N937        N938   1.321       .  A
N937       Mn941   2.208       .  S
N938       C1395   1.355       .  A
N939       N1383   1.317   1_545  A
N939        N940   1.322       .  A
N939       Mn942   2.217       .  S
N940       C1394   1.357       .  A
Mn941      N1140   2.213   1_554  S
Mn941      N1158   2.185   1_554  S
Mn941     Cl1393   2.552       .  S
Mn942      N1153   2.225       .  S
Mn942      N1160   2.200       .  S
Mn942     Cl1168   2.552   1_545  S
Cl943     Mn1391   2.541   1_545  S
Cl943     Mn1167   2.554       .  S
C944       N1390   1.355       .  A
C944       C1029   1.485       .  S
C945       N1388   1.352       .  A
C945       C1015   1.479       .  S
N946        C951   1.351       .  A
N946        C950   1.353       .  A
N946        H978   1.033   1_655  S
N947        C954   1.352       .  A
N947        C955   1.350       .  A
N948        C953   1.353       .  A
N948        C952   1.352       .  A
N948        H979   1.033   1_655  S
N949        C956   1.352       .  A
N949        C957   1.353   1_655  A
C950        C958   1.387       .  A
C950        C966   1.415       .  A
C951        C967   1.416       .  A
C951        C959   1.388       .  A
C952        C960   1.388       .  A
C952        C969   1.416       .  A
C953        C968   1.416       .  A
C953        C961   1.387       .  A
C954        C966   1.414       .  A
C954        C962   1.386   1_655  A
C955        C969   1.415       .  A
C955        C963   1.387   1_655  A
C956        C964   1.387   1_655  A
C956        C967   1.417       .  A
C957        C965   1.386       .  A
C957        C968   1.416   1_455  A
C958        C959   1.374       .  A
C958        H970   1.082       .  S
C959        H971   1.082       .  S
C960        C961   1.375       .  A
C960        H972   1.082       .  S
C961        H973   1.082       .  S
C962        C963   1.373       .  A
C962        H974   1.082       .  S
C963        H975   1.082       .  S
C964        C965   1.374       .  A
C964        H976   1.082       .  S
C965        H977   1.082       .  S
C966       C1113   1.485       .  S
C967       C1102   1.483       .  S
C968       C1074   1.488       .  S
C969       C1085   1.480       .  S
N980        C985   1.352       .  A
N980        C984   1.351       .  A
N980       H1012   1.036       .  S
N981        C988   1.349       .  A
N981        C989   1.350       .  A
N982        C987   1.349       .  A
N982        C986   1.349       .  A
N982       H1013   1.037       .  S
N983        C990   1.349       .  A
N983        C991   1.349       .  A
C984        C992   1.386       .  A
C984       C1000   1.411       .  A
C985       C1001   1.413       .  A
C985        C993   1.388       .  A
C986        C994   1.387       .  A
C986       C1003   1.408       .  A
C987       C1002   1.408       .  A
C987        C995   1.387       .  A
C988       C1000   1.410       .  A
C988        C996   1.387       .  A
C989       C1003   1.409       .  A
C989        C997   1.385       .  A
C990        C998   1.386       .  A
C990       C1001   1.409       .  A
C991        C999   1.387       .  A
C991       C1002   1.410       .  A
C992        C993   1.374       .  A
C992       H1004   1.082       .  S
C993       H1005   1.082       .  S
C994        C995   1.374       .  A
C994       H1006   1.082       .  S
C995       H1007   1.082       .  S
C996        C997   1.373       .  A
C996       H1008   1.082       .  S
C997       H1009   1.082       .  S
C998        C999   1.373       .  A
C998       H1010   1.082       .  S
C999       H1011   1.082       .  S
C1000      C1032   1.478       .  S
C1001      C1018   1.479       .  S
C1002      C1046   1.475       .  S
C1003      C1057   1.476       .  S
C1014      C1015   1.408   1_545  A
C1014      C1019   1.397       .  A
C1014      H1021   1.083       .  S
C1015      C1466   1.416       .  A
C1016      C1465   1.416       .  A
C1016      C1017   1.399       .  A
C1016      N1023   1.428       .  S
C1017      C1018   1.398       .  A
C1017      H1022   1.084       .  S
C1018      C1469   1.403       .  A
C1019      C1468   1.403       .  A
C1019      N1020   1.429       .  S
N1020      O1024   1.262       .  A
N1020      O1025   1.262       .  A
N1023      O1027   1.261       .  A
N1023      O1026   1.262       .  A
C1028      C1479   1.409   1_545  A
C1028      C1033   1.401       .  A
C1028      H1035   1.083       .  S
C1029      C1478   1.409       .  A
C1029      C1030   1.417       .  A
C1030      C1031   1.397       .  A
C1030      N1037   1.428       .  S
C1031      C1032   1.396       .  A
C1031      H1036   1.084       .  S
C1032      C1483   1.404       .  A
C1033      C1482   1.405       .  A
C1033      N1034   1.429       .  S
N1034      O1038   1.262       .  A
N1034      O1039   1.262       .  A
N1037      O1041   1.262       .  A
N1037      O1040   1.262       .  A
C1042      C1493   1.406       .  A
C1042      C1047   1.401       .  A
C1042      H1049   1.083       .  S
C1043      C1492   1.408       .  A
C1043      C1044   1.415   1_545  A
C1044      C1045   1.395       .  A
C1044      N1051   1.429       .  S
C1045      C1496   1.396   1_565  A
C1045      H1050   1.084       .  S
C1046      C1495   1.395       .  A
C1046      C1047   1.406       .  A
C1047      N1048   1.429       .  S
N1048      O1052   1.262       .  A
N1048      O1503   1.262       .  A
N1051      O1055   1.262       .  A
N1051      O1504   1.262       .  A
O1053      N1498   1.262       .  A
O1054      N1501   1.262       .  A
C1056      C1057   1.397       .  A
C1056      C1061   1.396       .  A
C1056      H1063   1.084       .  S
C1057      C1058   1.404       .  A
C1058      C1059   1.400       .  A
C1058      N1065   1.429       .  S
C1059      C1060   1.409       .  A
C1059      H1514   1.083       .  S
C1060      C1061   1.414       .  A
C1061      N1062   1.429       .  S
N1062      O1066   1.262       .  A
N1062      O1517   1.262       .  A
H1064      C1509   1.083       .  S
N1065      O1519   1.262       .  A
N1065      O1068   1.262       .  A
O1067      N1512   1.262       .  A
O1069      N1515   1.262       .  A
C1070      C1071   1.406       .  A
C1070      C1075   1.401       .  A
C1070      H1077   1.083       .  S
C1072      C1073   1.401       .  A
C1072      N1079   1.429       .  S
C1073      C1074   1.399       .  A
C1073      H1078   1.084       .  S
C1075      N1076   1.428       .  S
N1076      O1080   1.262       .  A
N1076      O1081   1.262       .  A
N1079      O1083   1.262       .  A
N1079      O1082   1.262       .  A
C1084      C1089   1.399       .  A
C1084      H1091   1.084       .  S
C1085      C1086   1.404       .  A
C1086      C1087   1.396       .  A
C1086      N1093   1.428       .  S
C1087      C1088   1.407       .  A
C1087      H1092   1.083       .  S
C1089      N1090   1.428       .  S
N1090      O1094   1.262       .  A
N1090      O1095   1.262       .  A
N1093      O1097   1.262       .  A
N1093      O1096   1.262       .  A
C1098      C1103   1.397       .  A
C1098      H1105   1.084       .  S
C1099      C1100   1.415       .  A
C1100      C1101   1.398       .  A
C1100      N1107   1.428       .  S
C1101      H1106   1.084       .  S
C1102      C1103   1.405       .  A
C1103      N1104   1.428       .  S
N1104      O1108   1.262       .  A
N1104      O1109   1.262       .  A
N1107      O1111   1.262       .  A
N1107      O1110   1.262       .  A
C1112      C1113   1.399       .  A
C1112      C1117   1.401       .  A
C1112      H1119   1.084       .  S
C1114      C1115   1.398       .  A
C1114      N1121   1.428       .  S
C1115      H1120   1.084       .  S
C1116      C1117   1.419       .  A
C1117      N1118   1.429       .  S
N1118      O1122   1.262       .  A
N1118      O1123   1.262       .  A
N1121      O1125   1.262       .  A
N1121      O1124   1.262       .  A
N1126      N1127   1.320       .  A
N1126      N1582   1.315   1_545  A
N1126     Mn1155   2.204       .  S
N1127      C1584   1.354   1_545  A
N1128      N1580   1.314       .  A
N1128      N1129   1.315       .  A
N1128     Mn1144   2.180       .  S
N1129      C1585   1.349       .  A
N1130      N1578   1.314   1_545  A
N1130      N1131   1.320       .  A
N1131      C1135   1.355       .  A
N1132      N1576   1.314       .  A
N1132      N1133   1.322       .  A
N1133      C1134   1.355       .  A
C1134      N1577   1.353       .  A
C1134      C1285   1.486       .  S
C1135      N1579   1.350   1_545  A
C1135      C1268   1.479       .  S
N1136      N1137   1.321       .  A
N1136     Mn1166   2.200       .  S
N1137      C1145   1.354       .  A
N1138      N1139   1.318       .  A
N1139      C1146   1.350       .  A
N1140      N1141   1.322       .  A
N1142      N1143   1.319       .  A
N1142     Mn1144   2.198       .  S
C1145      C1324   1.480       .  S
C1146      C1341   1.484       .  S
N1147      N1148   1.322       .  A
N1149      N1150   1.321       .  A
N1149     Mn1167   2.196   1_556  S
N1151      N1152   1.318       .  A
N1151     Mn1155   2.198       .  S
N1152      C1157   1.353   1_655  A
N1153      N1154   1.323       .  A
N1154      C1156   1.358       .  A
C1156      C1296   1.491       .  S
C1157      C1313   1.480       .  S
N1158      N1159   1.317       .  A
N1158      N1614   1.316       .  A
N1159      C1169   1.350       .  A
N1160      N1161   1.320       .  A
N1160      N1612   1.316   1_545  A
N1161      C1170   1.354       .  A
N1162      N1610   1.316       .  A
N1162      N1163   1.318       .  A
N1162     Mn1166   2.195       .  S
N1163      C1620   1.351       .  A
N1164      N1608   1.315   1_545  A
N1164      N1165   1.322       .  A
N1164     Mn1167   2.216   1_556  S
N1165      C1619   1.357   1_545  A
Mn1166    Cl1618   2.551       .  S
Cl1168    Mn1616   2.547       .  S
C1169      N1615   1.356       .  A
C1169      C1254   1.480       .  S
C1170      N1613   1.353   1_545  A
C1170      C1240   1.481       .  S
N1171      C1176   1.353       .  A
N1171      C1175   1.355       .  A
N1171      H1203   1.035       .  S
N1172      C1179   1.352       .  A
N1172      C1180   1.351       .  A
N1173      C1178   1.354   1_655  A
N1173      C1177   1.352       .  A
N1173      H1204   1.033       .  S
N1174      C1181   1.352       .  A
N1174      C1182   1.355       .  A
C1175      C1183   1.387   1_655  A
C1175      C1191   1.417       .  A
C1176      C1192   1.416       .  A
C1176      C1184   1.388   1_655  A
C1177      C1185   1.387   1_655  A
C1177      C1194   1.416       .  A
C1178      C1193   1.417   1_455  A
C1178      C1186   1.387       .  A
C1179      C1191   1.413       .  A
C1179      C1187   1.385       .  A
C1180      C1194   1.415       .  A
C1180      C1188   1.387       .  A
C1181      C1189   1.388       .  A
C1181      C1192   1.420       .  A
C1182      C1190   1.385       .  A
C1182      C1193   1.418       .  A
C1183      C1184   1.373       .  A
C1183      H1195   1.082       .  S
C1184      H1196   1.082       .  S
C1185      C1186   1.374       .  A
C1185      H1197   1.082       .  S
C1186      H1198   1.082       .  S
C1187      C1188   1.373       .  A
C1187      H1199   1.082       .  S
C1188      H1200   1.082       .  S
C1189      C1190   1.374       .  A
C1189      H1201   1.082       .  S
C1190      H1202   1.082       .  S
C1191      C1338   1.489       .  S
C1192      C1327   1.487       .  S
C1193      C1299   1.491       .  S
C1194      C1310   1.481       .  S
N1205      C1210   1.350       .  A
N1205      C1209   1.349       .  A
N1205      H1237   1.034       .  S
N1206      C1213   1.349       .  A
N1206      C1214   1.350       .  A
N1207      C1212   1.351       .  A
N1207      C1211   1.351       .  A
N1207      H1238   1.031       .  S
N1208      C1215   1.350       .  A
N1208      C1216   1.349       .  A
C1209      C1217   1.386       .  A
C1209      C1225   1.409       .  A
C1210      C1226   1.411       .  A
C1210      C1218   1.388       .  A
C1211      C1219   1.388       .  A
C1211      C1228   1.415       .  A
C1212      C1227   1.413       .  A
C1212      C1220   1.387       .  A
C1213      C1225   1.411       .  A
C1213      C1221   1.386       .  A
C1214      C1228   1.412       .  A
C1214      C1222   1.386       .  A
C1215      C1223   1.386       .  A
C1215      C1226   1.410       .  A
C1216      C1224   1.387       .  A
C1216      C1227   1.413       .  A
C1217      C1218   1.372       .  A
C1217      H1229   1.082       .  S
C1218      H1230   1.082       .  S
C1219      C1220   1.373       .  A
C1219      H1231   1.082       .  S
C1220      H1232   1.082       .  S
C1221      C1222   1.372       .  A
C1221      H1233   1.082       .  S
C1222      H1234   1.082       .  S
C1223      C1224   1.371       .  A
C1223      H1235   1.082       .  S
C1224      H1236   1.082       .  S
C1225      C1257   1.475       .  S
C1226      C1243   1.476       .  S
C1227      C1271   1.477       .  S
C1228      C1282   1.478       .  S
C1239      C1240   1.408       .  A
C1239      C1244   1.400       .  A
C1239      H1246   1.083       .  S
C1240      C1691   1.414   1_545  A
C1241      C1690   1.418       .  A
C1241      C1242   1.397       .  A
C1241      N1248   1.428       .  S
C1242      C1243   1.396       .  A
C1242      H1247   1.084       .  S
C1243      C1694   1.404       .  A
C1244      C1693   1.404       .  A
C1244      N1245   1.429       .  S
N1245      O1249   1.262       .  A
N1245      O1250   1.262       .  A
N1248      O1252   1.262       .  A
N1248      O1251   1.262       .  A
C1253      C1704   1.408   1_545  A
C1253      C1258   1.399       .  A
C1253      H1260   1.083       .  S
C1254      C1703   1.406       .  A
C1254      C1255   1.417       .  A
C1255      C1256   1.395       .  A
C1255      N1262   1.428       .  S
C1256      C1257   1.395       .  A
C1256      H1261   1.084       .  S
C1257      C1708   1.405       .  A
C1258      C1707   1.405   1_545  A
C1258      N1259   1.429       .  S
N1259      O1263   1.262       .  A
N1259      O1264   1.262       .  A
N1262      O1266   1.262       .  A
N1262      O1265   1.262       .  A
C1267      C1718   1.408       .  A
C1267      C1272   1.402       .  A
C1267      H1274   1.083       .  S
C1268      C1717   1.408       .  A
C1268      C1269   1.417   1_545  A
C1269      C1270   1.394       .  A
C1269      N1276   1.429       .  S
C1270      C1721   1.395   1_565  A
C1270      H1275   1.084       .  S
C1271      C1720   1.394       .  A
C1271      C1272   1.404       .  A
C1272      N1273   1.429       .  S
N1273      O1277   1.262       .  A
N1273      O1728   1.262       .  A
N1276      O1280   1.262       .  A
N1276      O1729   1.262       .  A
O1278      N1723   1.262       .  A
O1279      N1726   1.262       .  A
C1281      C1282   1.395       .  A
C1281      C1286   1.396       .  A
C1281      H1288   1.084       .  S
C1282      C1283   1.405       .  A
C1283      C1284   1.401       .  A
C1283      N1290   1.429       .  S
C1284      C1285   1.409       .  A
C1284      H1739   1.083       .  S
C1285      C1286   1.417       .  A
C1286      N1287   1.428       .  S
N1287      O1291   1.262       .  A
N1287      O1742   1.262       .  A
H1289      C1734   1.083       .  S
N1290      O1744   1.262       .  A
N1290      O1293   1.262       .  A
O1292      N1737   1.262       .  A
O1294      N1740   1.262       .  A
C1295      C1296   1.407       .  A
C1295      C1300   1.402       .  A
C1295      H1302   1.083       .  S
C1297      C1298   1.403       .  A
C1297      N1304   1.429       .  S
C1298      C1299   1.400       .  A
C1298      H1303   1.084       .  S
C1300      N1301   1.428       .  S
N1301      O1305   1.262       .  A
N1301      O1306   1.262       .  A
N1304      O1308   1.262       .  A
N1304      O1307   1.262       .  A
C1309      C1314   1.399       .  A
C1309      H1316   1.084       .  S
C1310      C1311   1.405       .  A
C1311      C1312   1.396       .  A
C1311      N1318   1.428       .  S
C1312      C1313   1.405   1_655  A
C1312      H1317   1.084       .  S
C1314      N1315   1.429       .  S
N1315      O1319   1.262       .  A
N1315      O1320   1.262       .  A
N1318      O1322   1.262       .  A
N1318      O1321   1.262       .  A
C1323      C1328   1.401       .  A
C1323      H1330   1.083       .  S
C1324      C1325   1.413       .  A
C1325      C1326   1.400       .  A
C1325      N1332   1.428       .  S
C1326      H1331   1.084       .  S
C1327      C1328   1.410       .  A
C1328      N1329   1.429       .  S
N1329      O1333   1.261       .  A
N1329      O1334   1.262       .  A
N1332      O1336   1.262       .  A
N1332      O1335   1.262       .  A
C1337      C1338   1.400       .  A
C1337      C1342   1.400       .  A
C1337      H1344   1.084       .  S
C1339      C1340   1.400       .  A
C1339      N1346   1.428       .  S
C1340      H1345   1.084       .  S
C1341      C1342   1.416       .  A
C1342      N1343   1.429       .  S
N1343      O1347   1.262       .  A
N1343      O1348   1.262       .  A
N1346      O1350   1.262       .  A
N1346      O1349   1.262       .  A
N1351      N1352   1.320       .  A
N1351     Mn1380   2.200       .  S
N1353      N1354   1.317       .  A
N1353     Mn1369   2.191       .  S
N1355      N1356   1.323       .  A
N1355     Mn1605   2.209       .  S
N1356      C1360   1.357       .  A
N1357      N1358   1.322       .  A
N1357     Mn1594   2.206       .  S
N1358      C1359   1.356       .  A
C1359      C1510   1.485       .  S
C1360      C1493   1.477       .  S
N1361      N1362   1.320       .  A
N1361     Mn1391   2.194       .  S
N1362      C1370   1.352       .  A
N1363      N1364   1.318       .  A
N1363     Mn1594   2.186       .  S
N1364      C1371   1.350       .  A
N1365      N1366   1.321       .  A
N1365     Mn1616   2.209       .  S
N1367      N1368   1.319       .  A
N1367     Mn1369   2.199       .  S
Mn1369     N1582   2.202   1_554  S
Mn1369     N1588   2.189   1_554  S
C1370      C1549   1.478       .  S
C1371      C1566   1.490       .  S
N1372      N1373   1.319       .  A
N1372     Mn1605   2.192       .  S
N1374      N1375   1.320       .  A
N1374     Mn1392   2.196       .  S
N1376      N1377   1.320       .  A
N1376     Mn1380   2.209       .  S
N1377      C1382   1.355       .  A
N1378      N1379   1.322       .  A
N1378     Mn1617   2.219       .  S
N1379      C1381   1.357       .  A
Mn1380     N1580   2.215       .  S
Mn1380     N1597   2.190       .  S
C1381      C1521   1.484       .  S
C1382      C1538   1.486       .  S
N1383      N1384   1.319       .  A
N1383     Mn1616   2.200       .  S
N1384      C1394   1.352   1_565  A
N1385      N1386   1.320       .  A
N1385     Mn1617   2.202       .  S
N1386      C1395   1.353       .  A
N1387      N1388   1.319       .  A
N1387     Mn1391   2.197       .  S
N1389      N1390   1.321       .  A
N1389     Mn1392   2.211       .  S
Mn1391     N1590   2.199   1_554  S
Mn1391     N1608   2.193   1_554  S
Mn1392     N1603   2.223       .  S
Mn1392     N1610   2.206       .  S
Mn1392    Cl1618   2.549       .  S
Cl1393    Mn1617   2.547       .  S
C1394      C1479   1.487   1_545  S
C1395      C1465   1.486       .  S
N1396      C1401   1.353       .  A
N1396      C1400   1.356       .  A
N1396      H1428   1.032       .  S
N1397      C1404   1.351       .  A
N1397      C1405   1.351       .  A
N1398      C1403   1.354   1_655  A
N1398      C1402   1.353       .  A
N1398      H1429   1.027       .  S
N1399      C1406   1.351       .  A
N1399      C1407   1.353       .  A
C1400      C1408   1.388       .  A
C1400      C1416   1.420       .  A
C1401      C1417   1.419       .  A
C1401      C1409   1.388       .  A
C1402      C1410   1.388   1_655  A
C1402      C1419   1.422       .  A
C1403      C1418   1.423       .  A
C1403      C1411   1.388       .  A
C1404      C1416   1.417       .  A
C1404      C1412   1.386       .  A
C1405      C1419   1.420       .  A
C1405      C1413   1.388       .  A
C1406      C1414   1.388       .  A
C1406      C1417   1.419       .  A
C1407      C1415   1.386       .  A
C1407      C1418   1.419   1_655  A
C1408      C1409   1.373       .  A
C1408      H1420   1.082   1_655  S
C1409      H1421   1.082       .  S
C1410      C1411   1.374       .  A
C1410      H1422   1.082       .  S
C1411      H1423   1.082       .  S
C1412      C1413   1.374       .  A
C1412      H1424   1.082       .  S
C1413      H1425   1.082       .  S
C1414      C1415   1.373       .  A
C1414      H1426   1.082       .  S
C1415      H1427   1.082       .  S
C1416      C1563   1.489       .  S
C1417      C1552   1.482       .  S
C1418      C1524   1.490       .  S
C1419      C1535   1.487       .  S
N1430      C1435   1.350   1_565  A
N1430      C1434   1.351   1_565  A
N1430      H1462   1.032       .  S
N1431      C1438   1.350       .  A
N1431      C1439   1.350       .  A
N1432      C1437   1.351   1_565  A
N1432      C1436   1.350   1_565  A
N1432      H1463   1.035       .  S
N1433      C1440   1.348   1_545  A
N1433      C1441   1.348       .  A
C1434      C1442   1.388       .  A
C1434      C1450   1.414   1_545  A
C1435      C1451   1.413       .  A
C1435      C1443   1.387       .  A
C1436      C1444   1.388       .  A
C1436      C1453   1.412   1_545  A
C1437      C1452   1.409       .  A
C1437      C1445   1.386       .  A
C1438      C1450   1.414       .  A
C1438      C1446   1.387       .  A
C1439      C1453   1.411       .  A
C1439      C1447   1.386       .  A
C1440      C1448   1.387       .  A
C1440      C1451   1.409   1_565  A
C1441      C1449   1.386   1_545  A
C1441      C1452   1.409       .  A
C1442      C1443   1.374       .  A
C1442      H1454   1.082       .  S
C1443      H1455   1.082       .  S
C1444      C1445   1.372       .  A
C1444      H1456   1.082       .  S
C1445      H1457   1.082       .  S
C1446      C1447   1.373       .  A
C1446      H1458   1.082       .  S
C1447      H1459   1.082       .  S
C1448      C1449   1.371       .  A
C1448      H1460   1.082       .  S
C1449      H1461   1.082       .  S
C1450      C1482   1.480   1_565  S
C1451      C1468   1.474       .  S
C1452      C1496   1.475       .  S
C1453      C1507   1.477       .  S
C1464      C1465   1.409       .  A
C1464      C1469   1.400       .  A
C1464      H1471   1.083       .  S
C1466      C1467   1.397       .  A
C1466      N1473   1.429       .  S
C1467      C1468   1.397   1_565  A
C1467      H1472   1.084       .  S
C1469      N1470   1.429       .  S
N1470      O1474   1.262       .  A
N1470      O1475   1.262       .  A
N1473      O1477   1.262       .  A
N1473      O1476   1.262       .  A
C1478      C1483   1.400       .  A
C1478      H1485   1.083       .  S
C1479      C1480   1.418       .  A
C1480      C1481   1.398       .  A
C1480      N1487   1.429       .  S
C1481      C1482   1.396   1_565  A
C1481      H1486   1.084       .  S
C1483      N1484   1.429       .  S
N1484      O1488   1.262       .  A
N1484      O1489   1.262       .  A
N1487      O1491   1.262       .  A
N1487      O1490   1.262       .  A
C1492      C1497   1.399       .  A
C1492      H1499   1.083       .  S
C1493      C1494   1.416       .  A
C1494      C1495   1.393       .  A
C1494      N1501   1.428       .  S
C1495      H1500   1.084       .  S
C1496      C1497   1.404       .  A
C1497      N1498   1.429       .  S
N1498      O1502   1.262       .  A
N1501      O1505   1.262       .  A
C1506      C1507   1.395   1_545  A
C1506      C1511   1.395       .  A
C1506      H1513   1.084       .  S
C1507      C1508   1.404       .  A
C1508      C1509   1.401       .  A
C1508      N1515   1.429       .  S
C1509      C1510   1.409       .  A
C1510      C1511   1.418   1_565  A
C1511      N1512   1.428       .  S
N1512      O1516   1.262       .  A
N1515      O1518   1.262       .  A
C1520      C1521   1.404       .  A
C1520      C1525   1.401       .  A
C1520      H1527   1.084       .  S
C1522      C1523   1.399       .  A
C1522      N1529   1.429       .  S
C1523      C1524   1.400   1_655  A
C1523      H1528   1.084       .  S
C1525      N1526   1.428       .  S
N1526      O1530   1.261       .  A
N1526      O1531   1.262       .  A
N1529      O1533   1.262       .  A
N1529      O1532   1.262       .  A
C1534      C1539   1.402       .  A
C1534      H1541   1.084       .  S
C1535      C1536   1.407       .  A
C1536      C1537   1.399       .  A
C1536      N1543   1.428       .  S
C1537      C1538   1.407       .  A
C1537      H1542   1.083       .  S
C1539      N1540   1.429       .  S
N1540      O1544   1.262       .  A
N1540      O1545   1.262       .  A
N1543      O1547   1.262       .  A
N1543      O1546   1.262       .  A
C1548      C1553   1.400       .  A
C1548      H1555   1.083       .  S
C1549      C1550   1.414       .  A
C1550      C1551   1.398       .  A
C1550      N1557   1.429       .  S
C1551      H1556   1.084       .  S
C1552      C1553   1.406       .  A
C1553      N1554   1.428       .  S
N1554      O1558   1.262       .  A
N1554      O1559   1.262       .  A
N1557      O1561   1.262       .  A
N1557      O1560   1.262       .  A
C1562      C1563   1.397       .  A
C1562      C1567   1.400       .  A
C1562      H1569   1.084       .  S
C1564      C1565   1.402       .  A
C1564      N1571   1.429       .  S
C1565      H1570   1.083       .  S
C1566      C1567   1.419       .  A
C1567      N1568   1.429       .  S
N1568      O1572   1.262       .  A
N1568      O1573   1.262       .  A
N1571      O1575   1.262       .  A
N1571      O1574   1.262       .  A
N1576      N1577   1.318       .  A
N1576     Mn1605   2.198   1_556  S
N1578      N1579   1.316       .  A
N1578     Mn1594   2.185       .  S
N1580      N1581   1.324       .  A
N1581      C1585   1.358       .  A
N1582      N1583   1.320       .  A
N1583      C1584   1.354       .  A
C1584      C1735   1.483       .  S
C1585      C1718   1.484       .  S
N1586      N1587   1.323       .  A
N1586     Mn1616   2.206       .  S
N1587      C1595   1.356       .  A
N1588      N1589   1.320       .  A
N1589      C1596   1.352       .  A
N1590      N1591   1.318       .  A
N1592      N1593   1.318       .  A
N1592     Mn1594   2.199       .  S
C1595      C1774   1.483       .  S
C1596      C1791   1.486       .  S
N1597      N1598   1.318       .  A
N1599      N1600   1.320       .  A
N1599     Mn1617   2.193   1_556  S
N1601      N1602   1.319       .  A
N1601     Mn1605   2.205   1_556  S
N1602      C1607   1.355   1_655  A
N1603      N1604   1.323       .  A
N1604      C1606   1.357       .  A
C1606      C1746   1.489       .  S
C1607      C1763   1.484   1_455  S
N1608      N1609   1.319       .  A
N1609      C1619   1.351       .  A
N1610      N1611   1.320       .  A
N1611      C1620   1.355       .  A
N1612      N1613   1.318       .  A
N1612     Mn1616   2.201       .  S
N1614      N1615   1.321       .  A
N1614     Mn1617   2.217   1_556  S
C1619      C1704   1.486       .  S
C1620      C1690   1.482       .  S
N1621      C1626   1.354       .  A
N1621      C1625   1.355       .  A
N1621      H1653   1.014       .  S
N1622      C1629   1.352       .  A
N1622      C1630   1.351       .  A
N1623      C1628   1.354       .  A
N1623      C1627   1.354       .  A
N1623      H1654   1.009       .  S
N1624      C1631   1.351       .  A
N1624      C1632   1.353       .  A
C1625      C1633   1.388       .  A
C1625      C1641   1.421       .  A
C1626      C1642   1.420       .  A
C1626      C1634   1.387       .  A
C1627      C1635   1.387       .  A
C1627      C1644   1.420       .  A
C1628      C1643   1.421       .  A
C1628      C1636   1.388       .  A
C1629      C1641   1.418       .  A
C1629      C1637   1.386       .  A
C1630      C1644   1.420       .  A
C1630      C1638   1.388       .  A
C1631      C1639   1.387       .  A
C1631      C1642   1.419       .  A
C1632      C1640   1.386       .  A
C1632      C1643   1.420       .  A
C1633      C1634   1.375       .  A
C1633      H1645   1.082       .  S
C1634      H1646   1.082       .  S
C1635      C1636   1.374       .  A
C1635      H1647   1.082       .  S
C1636      H1648   1.082       .  S
C1637      C1638   1.373       .  A
C1637      H1649   1.082   1_655  S
C1638      H1650   1.082       .  S
C1639      C1640   1.374       .  A
C1639      H1651   1.082       .  S
C1640      H1652   1.082       .  S
C1641      C1788   1.486       .  S
C1642      C1777   1.484       .  S
C1643      C1749   1.487       .  S
C1644      C1760   1.484       .  S
N1655      C1660   1.351   1_565  A
N1655      C1659   1.351       .  A
N1655      H1687   1.033       .  S
N1656      C1663   1.350       .  A
N1656      C1664   1.350       .  A
N1657      C1662   1.350   1_565  A
N1657      C1661   1.351       .  A
N1657      H1688   1.035       .  S
N1658      C1665   1.349       .  A
N1658      C1666   1.349   1_545  A
C1659      C1667   1.389   1_565  A
C1659      C1675   1.415       .  A
C1660      C1676   1.412       .  A
C1660      C1668   1.386       .  A
C1661      C1669   1.388   1_565  A
C1661      C1678   1.412       .  A
C1662      C1677   1.410       .  A
C1662      C1670   1.387       .  A
C1663      C1675   1.413       .  A
C1663      C1671   1.386       .  A
C1664      C1678   1.412       .  A
C1664      C1672   1.386       .  A
C1665      C1673   1.387   1_545  A
C1665      C1676   1.410       .  A
C1666      C1674   1.386       .  A
C1666      C1677   1.408   1_565  A
C1667      C1668   1.373       .  A
C1667      H1679   1.082       .  S
C1668      H1680   1.082       .  S
C1669      C1670   1.373       .  A
C1669      H1681   1.082       .  S
C1670      H1682   1.082       .  S
C1671      C1672   1.373       .  A
C1671      H1683   1.082       .  S
C1672      H1684   1.082       .  S
C1673      C1674   1.370       .  A
C1673      H1685   1.082       .  S
C1674      H1686   1.082       .  S
C1675      C1707   1.480       .  S
C1676      C1693   1.476       .  S
C1677      C1721   1.473       .  S
C1678      C1732   1.479       .  S
C1689      C1690   1.407       .  A
C1689      C1694   1.398       .  A
C1689      H1696   1.083       .  S
C1691      C1692   1.394       .  A
C1691      N1698   1.426       .  S
C1692      C1693   1.395   1_565  A
C1692      H1697   1.084       .  S
C1694      N1695   1.429       .  S
N1695      O1699   1.262       .  A
N1695      O1700   1.262       .  A
N1698      O1702   1.262       .  A
N1698      O1701   1.262       .  A
C1703      C1708   1.399       .  A
C1703      H1710   1.084       .  S
C1704      C1705   1.419       .  A
C1705      C1706   1.399       .  A
C1705      N1712   1.429       .  S
C1706      C1707   1.396       .  A
C1706      H1711   1.084       .  S
C1708      N1709   1.429       .  S
N1709      O1713   1.262       .  A
N1709      O1714   1.262       .  A
N1712      O1716   1.262       .  A
N1712      O1715   1.262       .  A
C1717      C1722   1.398       .  A
C1717      H1724   1.083       .  S
C1718      C1719   1.419       .  A
C1719      C1720   1.394       .  A
C1719      N1726   1.429       .  S
C1720      H1725   1.084       .  S
C1721      C1722   1.403       .  A
C1722      N1723   1.429       .  S
N1723      O1727   1.262       .  A
N1726      O1730   1.262       .  A
C1731      C1732   1.397   1_545  A
C1731      C1736   1.397       .  A
C1731      H1738   1.084       .  S
C1732      C1733   1.405       .  A
C1733      C1734   1.401       .  A
C1733      N1740   1.429       .  S
C1734      C1735   1.408       .  A
C1735      C1736   1.415   1_565  A
C1736      N1737   1.428       .  S
N1737      O1741   1.262       .  A
N1740      O1743   1.262       .  A
C1745      C1746   1.406       .  A
C1745      C1750   1.404       .  A
C1745      H1752   1.084       .  S
C1747      C1748   1.399       .  A
C1747      N1754   1.429       .  S
C1748      C1749   1.398       .  A
C1748      H1753   1.084       .  S
C1750      N1751   1.428       .  S
N1751      O1755   1.262       .  A
N1751      O1756   1.262       .  A
N1754      O1758   1.262       .  A
N1754      O1757   1.262       .  A
C1759      C1764   1.401       .  A
C1759      H1766   1.084       .  S
C1760      C1761   1.406       .  A
C1761      C1762   1.398       .  A
C1761      N1768   1.428       .  S
C1762      C1763   1.406       .  A
C1762      H1767   1.083       .  S
C1764      N1765   1.429       .  S
N1765      O1769   1.262       .  A
N1765      O1770   1.262       .  A
N1768      O1772   1.262       .  A
N1768      O1771   1.262       .  A
C1773      C1778   1.400       .  A
C1773      H1780   1.083       .  S
C1774      C1775   1.415       .  A
C1775      C1776   1.399       .  A
C1775      N1782   1.427       .  S
C1776      H1781   1.084       .  S
C1777      C1778   1.406       .  A
C1778      N1779   1.428       .  S
N1779      O1783   1.262       .  A
N1779      O1784   1.262       .  A
N1782      O1786   1.262       .  A
N1782      O1785   1.261       .  A
C1787      C1788   1.399       .  A
C1787      C1792   1.400       .  A
C1787      H1794   1.084       .  S
C1789      C1790   1.396       .  A
C1789      N1796   1.428       .  S
C1790      H1795   1.084       .  S
C1791      C1792   1.418       .  A
C1792      N1793   1.429       .  S
N1793      O1797   1.262       .  A
N1793      O1798   1.262       .  A
N1796      O1800   1.262       .  A
N1796      O1799   1.262       .  A
