geometry optimzed in LAMMPS
_audit_creation_date              2020-12-01 
_audit_creation_method            'lammps2cif' 
_symmetry_space_group_name_H-M    'P1' 
_symmetry_Int_Tables_number       1 
_symmetry_cell_setting            triclinic 
loop_ 
_symmetry_equiv_pos_as_xyz 
  x,y,z 
_cell_length_a                    61.96346689 
_cell_length_b                    62.01656659178769 
_cell_length_c                    73.65374069143276 
_cell_angle_alpha                 90.12976491644018 
_cell_angle_beta                  89.94078393863569 
_cell_angle_gamma                 119.72393643468155 
loop_ 
_atom_site_label 
_atom_site_type_symbol 
_atom_site_fract_x 
_atom_site_fract_y 
_atom_site_fract_z 
_atom_site_charge 
N1          N  0.44977725  0.17962160  0.39609356    -0.25600
N2          N  0.45091514  0.19065811  0.41175276    -0.33500
C3          C  0.45052056  0.17607780  0.42539796     0.02700
C4          C  0.44881987  0.15473346  0.41803016     0.08700
C5          C  0.44829440  0.15758772  0.39942305    -0.04400
H6          H  0.45167814  0.18082429  0.43966744     0.09400
H7          H  0.44803120  0.14508979  0.38903927     0.10600
Cu8        Cu  0.45379928  0.22540452  0.41416443     0.44200
Cu9        Cu  0.45314339  0.19597748  0.37079498     0.42000
Cu10       Cu  0.46191975  0.25773779  0.37186937     0.43900
N11         N  0.45651885  0.26011568  0.41237928    -0.33000
N12         N  0.45894534  0.27156104  0.39678342    -0.27300
C13         C  0.46049340  0.29361296  0.39998030    -0.03400
C14         C  0.45928916  0.29651495  0.41857132     0.08800
C15         C  0.45668116  0.27474902  0.42597093     0.02600
H16         H  0.46249495  0.30655742  0.38942504     0.10300
H17         H  0.45579739  0.27013866  0.44019479     0.09400
N18         N  0.46506112  0.24112458  0.34837439    -0.34500
N19         N  0.46100951  0.21810926  0.34777128    -0.26700
C20         C  0.46251548  0.21220336  0.33039021    -0.01900
C21         C  0.46800900  0.23259145  0.31958939     0.06700
C22         C  0.46957618  0.25059339  0.33148975     0.04800
H23         H  0.45930452  0.19422542  0.32589827     0.09900
H24         H  0.47240512  0.26875984  0.32801733     0.08700
N25         N  0.79964926  0.53676721  0.39764026    -0.25600
N26         N  0.78930803  0.53645153  0.41340795    -0.33500
C27         C  0.80176895  0.53217132  0.42663310     0.02700
C28         C  0.82076542  0.52956484  0.41871931     0.08700
C29         C  0.81877798  0.53274454  0.40032765    -0.04400
H30         H  0.79700727  0.53059467  0.44091271     0.09400
H31         H  0.83046120  0.53236059  0.38958973     0.10600
Cu32       Cu  0.75838618  0.54150758  0.41550735     0.44200
Cu33       Cu  0.78697273  0.54127619  0.37284192     0.42000
Cu34       Cu  0.73500547  0.55140522  0.37226546     0.43900
N35         N  0.72792820  0.54725452  0.41299672    -0.33000
N36         N  0.72025006  0.55180342  0.39744754    -0.27300
C37         C  0.69972159  0.55351184  0.40043946    -0.03400
C38         C  0.69387811  0.54952761  0.41868849     0.08800
C39         C  0.71217656  0.54563227  0.42622881     0.02600
H40         H  0.68884040  0.55570852  0.38987567     0.10300
H41         H  0.71345370  0.54107678  0.44023418     0.09400
N42         N  0.75030977  0.54586253  0.34890969    -0.34500
N43         N  0.76971149  0.54244926  0.34923343    -0.26700
C44         C  0.77529660  0.53919113  0.33219645    -0.01900
C45         C  0.75851476  0.54050952  0.32052055     0.06700
C46         C  0.74286297  0.54468869  0.33160106     0.04800
H47         H  0.79026701  0.53576269  0.32863633     0.09900
H48         H  0.72746888  0.54708841  0.32740472     0.08700
N49         N  0.79820479  0.25316978  0.39759536    -0.25600
N50         N  0.78777765  0.24250317  0.41320214    -0.33500
C51         C  0.80165965  0.25723592  0.42691019     0.02700
C52         C  0.82186899  0.27805368  0.41961980     0.08700
C53         C  0.81903389  0.27472154  0.40101265    -0.04400
H54         H  0.79703896  0.25327992  0.44127664     0.09400
H55         H  0.83063408  0.28781639  0.39059446     0.10600
Cu56       Cu  0.75429897  0.20927057  0.41503255     0.44200
Cu57       Cu  0.78226729  0.24005088  0.37231263     0.42000
Cu58       Cu  0.72204478  0.18576384  0.37208568     0.43900
N59         N  0.72013926  0.17689241  0.41252887    -0.33000
N60         N  0.70873736  0.16842069  0.39680559    -0.27300
C61         C  0.68670869  0.14797395  0.39969439    -0.03400
C62         C  0.68379432  0.14331270  0.41817412     0.08800
C63         C  0.70549609  0.16200667  0.42587988     0.02600
H64         H  0.67362449  0.13760217  0.38905535     0.10300
H65         H  0.70987891  0.16528357  0.44021956     0.09400
N66         N  0.73853076  0.20638539  0.34901400    -0.34500
N67         N  0.76091336  0.22618336  0.34901184    -0.26700
C68         C  0.76660238  0.23515749  0.33201841    -0.01900
C69         C  0.74680130  0.22027665  0.32071447     0.06700
C70         C  0.72931201  0.20223190  0.33205417     0.04800
H71         H  0.78413657  0.25100657  0.32816410     0.09900
H72         H  0.71116990  0.18717852  0.32834857     0.08700
C73         C  0.94222711  0.48528558  0.47307983    -0.09200
C74         C  0.93150246  0.46058908  0.46746615    -0.03100
C75         C  0.94098235  0.44523949  0.47270481    -0.09200
C76         C  0.96219189  0.45510263  0.48418675     0.11800
C77         C  0.97311020  0.48017784  0.49032996    -0.01000
C78         C  0.96311159  0.49534672  0.48473681     0.11600
C79         C  0.97418679  0.52002741  0.49096977    -0.11000
C80         C  0.99473835  0.52973910  0.50257875    -0.11000
C81         C  0.00502352  0.51515520  0.50826338     0.11600
C82         C  0.99417211  0.49015639  0.50201083    -0.01000
C83         C  0.97309910  0.44087176  0.48939947    -0.11100
C84         C  0.99377208  0.45067261  0.50080936    -0.11100
C85         C  0.00452890  0.47518193  0.50726302     0.11800
C86         C  0.02567720  0.48533787  0.51861881    -0.09200
C87         C  0.03583453  0.50970308  0.52487428    -0.03100
C88         C  0.02597116  0.52477197  0.51995172    -0.09200
H89         H  0.96698258  0.53201939  0.48689738     0.09000
H90         H  0.00260483  0.54881877  0.50703652     0.09000
H91         H  0.96591735  0.42207556  0.48455225     0.09200
H92         H  0.00139244  0.43888627  0.50447459     0.09200
H93         H  0.91500595  0.45300554  0.45899321     0.05600
H94         H  0.05207452  0.51724915  0.53361956     0.05600
N95         N  0.53094501  0.81068528  0.61063785    -0.25600
N96         N  0.53156157  0.80191336  0.59435419    -0.33500
C97         C  0.53102123  0.81748226  0.58179296     0.02700
C98         C  0.52971384  0.83666266  0.59063819     0.08700
C99         C  0.52971056  0.83162189  0.60889359    -0.04400
H100        H  0.53047884  0.81449058  0.56723673     0.09400
H101        H  0.52838538  0.84215139  0.62017043     0.10600
Cu102      Cu  0.53078271  0.76773461  0.59036742     0.44200
Cu103      Cu  0.52950543  0.79324048  0.63480812     0.42000
Cu104      Cu  0.51773759  0.73102305  0.63190560     0.43900
N105        N  0.52729671  0.73203771  0.59139846    -0.33000
N106        N  0.52191010  0.71892161  0.60656311    -0.27300
C107        C  0.51929085  0.69649828  0.60292077    -0.03400
C108        C  0.52344819  0.69520960  0.58463765     0.08800
C109        C  0.52847565  0.71808246  0.57768704     0.02600
H110        H  0.51418779  0.68191405  0.61285163     0.10300
H111        H  0.53164784  0.72370388  0.56358703     0.09400
N112        N  0.51775261  0.74773156  0.65630472    -0.34500
N113        N  0.52293330  0.77105390  0.65730154    -0.26700
C114        C  0.52247140  0.77707069  0.67475267    -0.01900
C115        C  0.51652144  0.75644893  0.68540054     0.06700
C116        C  0.51370057  0.73815882  0.67315770     0.04800
H117        H  0.52665678  0.79532368  0.67927857     0.09900
H118        H  0.50895854  0.71927363  0.67615783     0.08700
N119        N  0.17077720  0.44625052  0.59997988    -0.25600
N120        N  0.18143719  0.44568349  0.58456174    -0.33500
C121        C  0.16783666  0.44636116  0.57054862     0.02700
C122        C  0.14768025  0.44762844  0.57743405     0.08700
C123        C  0.15017994  0.44745867  0.59615262    -0.04400
H124        H  0.17278451  0.44678484  0.55638758     0.09400
H125        H  0.13797568  0.44826826  0.60629450     0.10600
Cu126      Cu  0.21465409  0.44529379  0.58338878     0.44200
Cu127      Cu  0.18511322  0.44616276  0.62564143     0.42000
Cu128      Cu  0.24219646  0.44381742  0.62678661     0.43900
N129        N  0.24761270  0.44461455  0.58594188    -0.33000
N130        N  0.25732438  0.44341688  0.60164025    -0.27300
C131        C  0.27848172  0.44296255  0.59843147    -0.03400
C132        C  0.28235265  0.44415278  0.57985827     0.08800
C133        C  0.26247165  0.44527427  0.57238369     0.02600
H134        H  0.29056469  0.44259898  0.60887737     0.10300
H135        H  0.25903537  0.44650165  0.55810082     0.09400
N136        N  0.22408501  0.44562962  0.65005791    -0.34500
N137        N  0.20325015  0.44658343  0.64967624    -0.26700
C138        C  0.19684502  0.44860117  0.66682310    -0.01900
C139        C  0.21451253  0.44899258  0.67864321     0.06700
C140        C  0.23144906  0.44698058  0.66742661     0.04800
H141        H  0.18053729  0.44978347  0.67037099     0.09900
H142        H  0.24837055  0.44733832  0.67149823     0.08700
N143        N  0.17452157  0.70496355  0.60597934    -0.25600
N144        N  0.18286323  0.71585350  0.59008203    -0.33500
C145        C  0.16753445  0.70114814  0.57691328     0.02700
C146        C  0.14872349  0.67981401  0.58481698     0.08700
C147        C  0.15383320  0.68288963  0.60327567    -0.04400
H148        H  0.17030550  0.70537390  0.56257775     0.09400
H149        H  0.14317427  0.67015338  0.61398232     0.10600
Cu150      Cu  0.21551649  0.74959459  0.58674036     0.44200
Cu151      Cu  0.19111177  0.72089023  0.63081210     0.42000
Cu152      Cu  0.24590567  0.78101852  0.62868189     0.43900
N153        N  0.24953349  0.78239196  0.58762752    -0.33000
N154        N  0.26049526  0.79361663  0.60294665    -0.27300
C155        C  0.28203476  0.81420300  0.59904431    -0.03400
C156        C  0.28492950  0.81622010  0.58034927     0.08800
C157        C  0.26388139  0.79563276  0.57356383     0.02600
H158        H  0.29435164  0.82707659  0.60914777     0.10300
H159        H  0.25933514  0.79047226  0.55943344     0.09400
N160        N  0.22883996  0.76423351  0.65301595    -0.34500
N161        N  0.20902158  0.74188887  0.65383497    -0.26700
C162        C  0.20292456  0.73587972  0.67138193    -0.01900
C163        C  0.21964658  0.75540387  0.68227215     0.06700
C164        C  0.23578444  0.77307210  0.66999838     0.04800
H165        H  0.18770259  0.71826343  0.67582932     0.09900
H166        H  0.25144195  0.79114829  0.67308355     0.08700
C167        C  0.48316693  0.03146075  0.47899612    -0.09200
C168        C  0.50834471  0.04227694  0.47450171    -0.03100
C169        C  0.52290005  0.03219798  0.48029792    -0.09200
C170        C  0.51245770  0.01103670  0.49159685     0.11800
C171        C  0.48695681  0.99976760  0.49639052    -0.01000
C172        C  0.47214110  0.00984219  0.48994010     0.11600
C173        C  0.44671096  0.99769481  0.49423880    -0.11000
C174        C  0.43599322  0.97612858  0.50470935    -0.11000
C175        C  0.45039355  0.96613227  0.51145446     0.11600
C176        C  0.47615460  0.97810860  0.50738066    -0.01000
C177        C  0.52675382  0.00078055  0.49810168    -0.11100
C178        C  0.51632467  0.97999748  0.50939724    -0.11100
C179        C  0.49109679  0.96839085  0.51421443     0.11800
C180        C  0.48023411  0.94722369  0.52561040    -0.09200
C181        C  0.45477271  0.93540917  0.52908884    -0.03100
C182        C  0.43974292  0.94430203  0.52205533    -0.09200
H183        H  0.43483367  0.00464065  0.48937084     0.09000
H184        H  0.41627861  0.96734625  0.50752953     0.09000
H185        H  0.54624011  0.00895382  0.49465293     0.09200
H186        H  0.52812489  0.97292165  0.51421091     0.09200
H187        H  0.51669063  0.05860762  0.46588346     0.05600
H188        H  0.44645799  0.91896784  0.53759656     0.05600
C189        C  0.49490809  0.45556388  0.47960001    -0.09200
C190        C  0.51820673  0.47230226  0.47252290    -0.03100
C191        C  0.53004586  0.49765053  0.47665803    -0.09200
C192        C  0.51838792  0.50670610  0.48861259     0.11800
C193        C  0.49461750  0.48994000  0.49590696    -0.01000
C194        C  0.48275967  0.46429067  0.49129308     0.11600
C195        C  0.45918600  0.44809082  0.49852703    -0.11000
C196        C  0.44727003  0.45687484  0.50993846    -0.11000
C197        C  0.45852791  0.48217532  0.51459817     0.11600
C198        C  0.48261054  0.49884980  0.50776413    -0.01000
C199        C  0.52963850  0.53200051  0.49329798    -0.11100
C200        C  0.51809159  0.54065267  0.50525073    -0.11100
C201        C  0.49465722  0.52441707  0.51269844     0.11800
C202        C  0.48267877  0.53301835  0.52474718    -0.09200
C203        C  0.45885249  0.51636648  0.53107537    -0.03100
C204        C  0.44650143  0.49127117  0.52609537    -0.09200
H205        H  0.44974553  0.42843654  0.49539355     0.09000
H206        H  0.42918486  0.44358398  0.51521254     0.09000
H207        H  0.54754845  0.54533501  0.48777804     0.09200
H208        H  0.52759800  0.56025964  0.50851673     0.09200
H209        H  0.52732835  0.46542413  0.46351577     0.05600
H210        H  0.44954449  0.52320962  0.53992591     0.05600
N211        N  0.80449450  0.53858277  0.10515713    -0.25600
N212        N  0.79323215  0.53836302  0.08981057    -0.33500
C213        C  0.80644261  0.53693007  0.07575763     0.02700
C214        C  0.82676462  0.53591696  0.08254896     0.08700
C215        C  0.82485407  0.53691477  0.10122233    -0.04400
H216        H  0.80116577  0.53582793  0.06161365     0.09400
H217        H  0.83726313  0.53627331  0.11123846     0.10600
Cu218      Cu  0.75947029  0.53846603  0.08839321     0.44200
Cu219      Cu  0.79179294  0.54035903  0.13109451     0.42000
Cu220      Cu  0.73203281  0.53594817  0.13184832     0.43900
N221        N  0.72578458  0.53837227  0.09161128    -0.33000
N222        N  0.71604358  0.53730936  0.10776900    -0.27300
C223        C  0.69458160  0.53745302  0.10589109    -0.03400
C224        C  0.69024323  0.53856614  0.08759510     0.08800
C225        C  0.71052342  0.53919643  0.07891388     0.02600
H226        H  0.68312862  0.53697552  0.11712787     0.10300
H227        H  0.71368131  0.53964395  0.06442127     0.09400
N228        N  0.75121869  0.53762373  0.15501569    -0.34500
N229        N  0.77347179  0.53969233  0.15506595    -0.26700
C230        C  0.78064135  0.54039965  0.17242999    -0.01900
C231        C  0.76188569  0.53867843  0.18376742     0.06700
C232        C  0.74357354  0.53692586  0.17215407     0.04800
H233        H  0.79818853  0.54207892  0.17645504     0.09900
H234        H  0.72569880  0.53473616  0.17580329     0.08700
N235        N  0.45176762  0.18655997  0.10576252    -0.25600
N236        N  0.45065211  0.19630423  0.09009009    -0.33500
C237        C  0.44893719  0.18095503  0.07653827     0.02700
C238        C  0.44887858  0.16041477  0.08398698     0.08700
C239        C  0.45069856  0.16470279  0.10257512    -0.04400
H240        H  0.44812264  0.18473611  0.06228278     0.09400
H241        H  0.45082318  0.15268059  0.11312060     0.10600
Cu242      Cu  0.45068511  0.22956647  0.08779830     0.44200
Cu243      Cu  0.45438462  0.20298481  0.13096323     0.42000
Cu244      Cu  0.44789418  0.25714137  0.13088328     0.43900
N245        N  0.44882373  0.26186305  0.09000003    -0.33000
N246        N  0.44689764  0.27131138  0.10564083    -0.27300
C247        C  0.44631811  0.29232857  0.10242036    -0.03400
C248        C  0.44817256  0.29636569  0.08392726     0.08800
C249        C  0.44987603  0.27682723  0.07643131     0.02600
H250        H  0.44586642  0.30443246  0.11283439     0.10300
H251        H  0.45222775  0.27396357  0.06221334     0.09400
N252        N  0.45232826  0.24166390  0.15451997    -0.34500
N253        N  0.45548759  0.22210152  0.15454389    -0.26700
C254        C  0.45899067  0.21721479  0.17175423    -0.01900
C255        C  0.45775695  0.23442505  0.18311553     0.06700
C256        C  0.45343373  0.24959313  0.17170461     0.04800
H257        H  0.46192421  0.20209910  0.17572080     0.09900
H258        H  0.45173306  0.26552069  0.17555571     0.08700
N259        N  0.79416375  0.27023826  0.10669425    -0.25600
N260        N  0.78174195  0.26172412  0.09133026    -0.33500
C261        C  0.79550976  0.27626634  0.07758103     0.02700
C262        C  0.81776255  0.29495315  0.08452278     0.08700
C263        C  0.81620433  0.29048552  0.10307614    -0.04400
H264        H  0.78933541  0.27380509  0.06358670     0.09400
H265        H  0.82996115  0.30120986  0.11326206     0.10600
Cu266      Cu  0.74638545  0.23110665  0.08952083     0.44200
Cu267      Cu  0.77986067  0.25478813  0.13199208     0.42000
Cu268      Cu  0.71750268  0.20185777  0.13183843     0.43900
N269        N  0.71205778  0.19907845  0.09114568    -0.33000
N270        N  0.70164888  0.18830304  0.10667314    -0.27300
C271        C  0.67988072  0.16772622  0.10323778    -0.03400
C272        C  0.67631657  0.16536268  0.08461325     0.08800
C273        C  0.69715599  0.18562861  0.07738802     0.02600
H274        H  0.66781725  0.15520599  0.11357044     0.10300
H275        H  0.70118897  0.19043148  0.06317539     0.09400
N276        N  0.73686775  0.21894925  0.15531245    -0.34500
N277        N  0.75981465  0.23792376  0.15544523    -0.26700
C278        C  0.76698109  0.24446032  0.17277657    -0.01900
C279        C  0.74754794  0.22894994  0.18409578     0.06700
C280        C  0.72876627  0.21302441  0.17250531     0.04800
H281        H  0.78486226  0.25968840  0.17680203     0.09900
H282        H  0.71065720  0.19796514  0.17625788     0.08700
C283        C  0.93815606  0.44936664  0.01888109    -0.09200
C284        C  0.92837541  0.46456018  0.02388435    -0.03100
C285        C  0.93913750  0.48917980  0.01822142    -0.09200
C286        C  0.96035165  0.49920500  0.00699025     0.11800
C287        C  0.97107560  0.48437004  0.00213601    -0.01000
C288        C  0.96007729  0.45935535  0.00819926     0.11600
C289        C  0.97106871  0.44508810  0.00317754    -0.11000
C290        C  0.99263430  0.45525173  0.99258227    -0.11000
C291        C  0.00366282  0.47987344  0.98634721     0.11600
C292        C  0.99269110  0.49454631  0.99105560    -0.01000
C293        C  0.97081151  0.52348922  0.00027091    -0.11100
C294        C  0.99154639  0.53321226  0.98901042    -0.11100
C295        C  0.00316611  0.51934927  0.98458443     0.11800
C296        C  0.02472216  0.52939420  0.97357543    -0.09200
C297        C  0.03549484  0.51484630  0.96945729    -0.03100
C298        C  0.02544003  0.49044666  0.97556549    -0.09200
H299        H  0.96309655  0.42595435  0.00746442     0.09000
H300        H  0.00053907  0.44362131  0.98918112     0.09000
H301        H  0.96277782  0.53507501  0.00345954     0.09200
H302        H  0.99833132  0.55175269  0.98380479     0.09200
H303        H  0.91189808  0.45700449  0.03237860     0.05600
H304        H  0.05229635  0.52277303  0.96129392     0.05600
N305        N  0.52326927  0.80783702  0.89903889    -0.25600
N306        N  0.51892988  0.79506165  0.91426063    -0.33500
C307        C  0.51595907  0.80778837  0.92790303     0.02700
C308        C  0.51866483  0.82971081  0.92098373     0.08700
C309        C  0.52334164  0.82914079  0.90264787    -0.04400
H310        H  0.51224646  0.80155908  0.94186637     0.09400
H311        H  0.52591966  0.84287051  0.89255582     0.10600
Cu312      Cu  0.51709005  0.76091346  0.91601506     0.44200
Cu313      Cu  0.52714756  0.79505803  0.87380901     0.42000
Cu314      Cu  0.52175820  0.73420189  0.87394699     0.43900
N315        N  0.51755290  0.72787321  0.91434045    -0.33000
N316        N  0.51971130  0.71828319  0.89888920    -0.27300
C317        C  0.52002778  0.69718673  0.90233025    -0.03400
C318        C  0.51788902  0.69321301  0.92091029     0.08800
C319        C  0.51629583  0.71307578  0.92805745     0.02600
H320        H  0.52200695  0.68586042  0.89202848     0.10300
H321        H  0.51402530  0.71646680  0.94218196     0.09400
N322        N  0.52297010  0.75310630  0.85062972    -0.34500
N323        N  0.52572580  0.77565028  0.85037998    -0.26700
C324        C  0.52560230  0.78230495  0.83300840    -0.01900
C325        C  0.52229974  0.76283624  0.82190011     0.06700
C326        C  0.52072121  0.74468924  0.83354346     0.04800
H327        H  0.52696348  0.79965159  0.82882378     0.09900
H328        H  0.51813821  0.72664875  0.82988989     0.08700
N329        N  0.17779713  0.46189249  0.89297930    -0.25600
N330        N  0.18901009  0.46360920  0.90858459    -0.33500
C331        C  0.17497043  0.46462382  0.92215669     0.02700
C332        C  0.15377555  0.46341940  0.91474926     0.08700
C333        C  0.15632520  0.46168309  0.89616670    -0.04400
H334        H  0.18006880  0.46641994  0.93637110     0.09400
H335        H  0.14340508  0.46000477  0.88567409     0.10600
Cu336      Cu  0.22269744  0.46394039  0.91029996     0.44200
Cu337      Cu  0.19265509  0.46042375  0.86811773     0.42000
Cu338      Cu  0.25113736  0.45955104  0.86789115     0.43900
N339        N  0.25549960  0.46244527  0.90901584    -0.33000
N340        N  0.26583772  0.46049864  0.89383098    -0.27300
C341        C  0.28691288  0.46026543  0.89811335    -0.03400
C342        C  0.29005525  0.46219781  0.91690008     0.08800
C343        C  0.26965746  0.46355721  0.92321730     0.02600
H344        H  0.29902372  0.45881155  0.88823586     0.10300
H345        H  0.26562770  0.46591217  0.93715377     0.09400
N346        N  0.23287279  0.46121529  0.84429640    -0.34500
N347        N  0.21160478  0.46137057  0.84467385    -0.26700
C348        C  0.20460807  0.46258852  0.82761013    -0.01900
C349        C  0.22222763  0.46326696  0.81569608     0.06700
C350        C  0.23995313  0.46242763  0.82680757     0.04800
H351        H  0.18794803  0.46318599  0.82419304     0.09900
H352        H  0.25652698  0.46221923  0.82248560     0.08700
N353        N  0.16779543  0.71730202  0.89621344    -0.25600
N354        N  0.17726132  0.72830869  0.91193051    -0.33500
C355        C  0.16170953  0.71478961  0.92535683     0.02700
C356        C  0.14144232  0.69420102  0.91781518     0.08700
C357        C  0.14595127  0.69655730  0.89927880    -0.04400
H358        H  0.16534450  0.71931932  0.93964532     0.09400
H359        H  0.13491051  0.68337877  0.88884225     0.10600
Cu360      Cu  0.21196401  0.75995719  0.91491383     0.44200
Cu361      Cu  0.18588288  0.72943083  0.87134932     0.42000
Cu362      Cu  0.24655531  0.78417250  0.87334720     0.43900
N363        N  0.24771131  0.79051001  0.91413596    -0.33000
N364        N  0.26037172  0.79908348  0.89888137    -0.27300
C365        C  0.28295916  0.81834198  0.90277133    -0.03400
C366        C  0.28467643  0.82224771  0.92137354     0.08800
C367        C  0.26189824  0.80425710  0.92814135     0.02600
H368        H  0.29701900  0.82889715  0.89273809     0.10300
H369        H  0.25620816  0.80108404  0.94221465     0.09400
N370        N  0.22992032  0.76586297  0.84924322    -0.34500
N371        N  0.20790928  0.74554127  0.84849878    -0.26700
C372        C  0.20244821  0.73840340  0.83102991    -0.01900
C373        C  0.22186906  0.75514951  0.82017841     0.06700
C374        C  0.23894655  0.77228841  0.83227736     0.04800
H375        H  0.18519468  0.72269203  0.82652439     0.09900
H376        H  0.25664958  0.78831699  0.82902812     0.08700
C377        C  0.47980950  0.03617469  0.02392738    -0.09200
C378        C  0.50490304  0.04851330  0.02871898    -0.03100
C379        C  0.52055221  0.03910134  0.02421359    -0.09200
C380        C  0.51093895  0.01651236  0.01449087     0.11800
C381        C  0.48539823  0.00365263  0.00956831    -0.01000
C382        C  0.46970838  0.01341807  0.01441606     0.11600
C383        C  0.44456231  0.00049206  0.00929515    -0.11000
C384        C  0.43500603  0.97856679  0.99927472    -0.11000
C385        C  0.45026118  0.96880882  0.99405681     0.11600
C386        C  0.47565780  0.98130267  0.99939329    -0.01000
C387        C  0.52621709  0.00678119  0.00918591    -0.11100
C388        C  0.51664859  0.98483214  0.99915648    -0.11100
C389        C  0.49148607  0.97188540  0.99408910     0.11800
C390        C  0.48169096  0.95004155  0.98346711    -0.09200
C391        C  0.45671021  0.93803259  0.97837810    -0.03100
C392        C  0.44100863  0.94715623  0.98327910    -0.09200
H393        H  0.43213754  0.00741829  0.01281336     0.09000
H394        H  0.41557465  0.96942248  0.99547427     0.09000
H395        H  0.54579315  0.01623673  0.01258078     0.09200
H396        H  0.52916522  0.97816659  0.99525615     0.09200
H397        H  0.51244648  0.06589915  0.03615478     0.05600
H398        H  0.44942751  0.92143727  0.97001346     0.05600
C399        C  0.52863076  0.50078597  0.03159310    -0.09200
C400        C  0.51512720  0.47599315  0.03694241    -0.03100
C401        C  0.49040853  0.46078274  0.03172748    -0.09200
C402        C  0.47838694  0.47033884  0.02083073     0.11800
C403        C  0.49172164  0.49548352  0.01528893    -0.01000
C404        C  0.51696947  0.51083213  0.02067368     0.11600
C405        C  0.52978136  0.53566646  0.01497587    -0.11000
C406        C  0.51812121  0.54527177  0.00413593    -0.11000
C407        C  0.49324467  0.53036013  0.99862884     0.11600
C408        C  0.47980194  0.50526895  0.00430497    -0.01000
C409        C  0.45343598  0.45548259  0.01542889    -0.11100
C410        C  0.44168786  0.46514901  0.00470624    -0.11100
C411        C  0.45450094  0.48996287  0.99897226     0.11800
C412        C  0.44281915  0.50013932  0.98815969    -0.09200
C413        C  0.45646661  0.52488218  0.98276749    -0.03100
C414        C  0.48129980  0.53990076  0.98767488    -0.09200
H415        H  0.54894117  0.54784646  0.01886550     0.09000
H416        H  0.52876239  0.56456316  0.00013283     0.09000
H417        H  0.44275421  0.43623878  0.01952658     0.09200
H418        H  0.42245065  0.45305476  0.00095379     0.09200
H419        H  0.52412323  0.46827536  0.04523007     0.05600
H420        H  0.44765982  0.53256236  0.97423283     0.05600
C421        C  0.37341884  0.89895168  0.97781016     0.14300
C422        C  0.37019904  0.90016979  0.95898256     0.01300
C423        C  0.38934115  0.91942997  0.94889137     0.16300
C424        C  0.41187100  0.93598085  0.95720260     0.25700
C425        C  0.41551102  0.93382952  0.97577307    -0.40700
C426        C  0.39595241  0.91567751  0.98613152     0.32700
C427        C  0.34805487  0.88011724  0.94958958     0.01300
F428        F  0.38657163  0.92158564  0.93081358    -0.13000
F429        F  0.39934324  0.91306869  0.00402616    -0.13500
C430        C  0.32380880  0.87377765  0.95491173     0.16300
C431        C  0.30313632  0.85448893  0.94612028     0.25700
C432        C  0.30635621  0.84157353  0.93156870    -0.40600
C433        C  0.33062701  0.84772609  0.92645619     0.32600
C434        C  0.35121253  0.86662708  0.93545615     0.14300
F435        F  0.32014993  0.88664235  0.96835276    -0.13000
F436        F  0.33446668  0.83490354  0.91307967    -0.13500
F437        F  0.28000307  0.84902648  0.95145918    -0.15800
F438        F  0.37432206  0.87137804  0.93062489    -0.14300
F439        F  0.35545676  0.88046449  0.98789651    -0.14300
F440        F  0.43074109  0.95322342  0.94692840    -0.15800
C441        C  0.37750901  0.48597194  0.97791178     0.14300
C442        C  0.37272566  0.47278189  0.96142880     0.01300
C443        C  0.38954815  0.46506858  0.95565165     0.16300
C444        C  0.41143148  0.47184831  0.96546333     0.25700
C445        C  0.41679828  0.48620660  0.98133779    -0.40700
C446        C  0.39928347  0.49255584  0.98775253     0.32700
C447        C  0.35127387  0.46872155  0.94973248     0.01300
F448        F  0.38526999  0.45178110  0.94009135    -0.13000
F449        F  0.40425835  0.50685248  0.00285845    -0.13500
C450        C  0.35514448  0.47701155  0.93160018     0.16300
C451        C  0.33528830  0.47436743  0.92082209     0.25700
C452        C  0.31103134  0.46371250  0.92797500    -0.40600
C453        C  0.30718192  0.45524231  0.94610977     0.32600
C454        C  0.32700435  0.45761794  0.95678454     0.14300
F455        F  0.37842543  0.48869272  0.92449246    -0.13000
F456        F  0.28411424  0.44421564  0.95354232    -0.13500
F457        F  0.34015861  0.48333804  0.90362336    -0.15800
F458        F  0.32239898  0.44885126  0.97405459    -0.14300
F459        F  0.36206968  0.49417873  0.98380313    -0.14300
F460        F  0.42832721  0.46606089  0.95871321    -0.15800
C461        C  0.49559604  0.86150950  0.95328642     0.14300
C462        C  0.51226849  0.88677224  0.94976996     0.01300
C463        C  0.53101364  0.89302781  0.93669676     0.16300
C464        C  0.53290124  0.87446932  0.92721429     0.25700
C465        C  0.51650490  0.84928059  0.93094588    -0.40700
C466        C  0.49793802  0.84295933  0.94416823     0.32700
C467        C  0.50927842  0.90642873  0.95909087     0.01300
F468        F  0.54772068  0.91716863  0.93322574    -0.13000
F469        F  0.48138141  0.81879713  0.94775044    -0.13500
C470        C  0.50692642  0.90641946  0.97813217     0.16300
C471        C  0.50038943  0.92264170  0.98657004     0.25700
C472        C  0.49656026  0.93933895  0.97611997    -0.40600
C473        C  0.50108792  0.94088947  0.95736740     0.32600
C474        C  0.50706597  0.92438918  0.94886419     0.14300
F475        F  0.50988681  0.88996133  0.98846215    -0.13000
F476        F  0.49754494  0.95702352  0.94708688    -0.13500
F477        F  0.49604680  0.92084354  0.00472504    -0.15800
F478        F  0.50864658  0.92467923  0.93047073    -0.14300
F479        F  0.47643882  0.85473059  0.96507829    -0.14300
F480        F  0.55121326  0.88117729  0.91469324    -0.15800
C481        C  0.49436192  0.60447568  0.97767420     0.14300
C482        C  0.50881589  0.60993320  0.96182563     0.01300
C483        C  0.51670809  0.59338962  0.95586136     0.16300
C484        C  0.50912589  0.57110768  0.96509490     0.25700
C485        C  0.49388026  0.56534498  0.98047107    -0.40700
C486        C  0.48701979  0.58235134  0.98695058     0.32700
C487        C  0.51352667  0.63168715  0.95077934     0.01300
F488        F  0.53089892  0.59837291  0.94071238    -0.13000
F489        F  0.47185738  0.57671685  0.00160786    -0.13500
C490        C  0.52449713  0.65542174  0.95863936     0.16300
C491        C  0.52619532  0.67547329  0.94887747     0.25700
C492        C  0.51711267  0.67218742  0.93096432    -0.40600
C493        C  0.50680617  0.64848062  0.92293020     0.32600
C494        C  0.50497624  0.62842413  0.93277720     0.14300
F495        F  0.53335383  0.65911530  0.97589445    -0.13000
F496        F  0.49722249  0.64427507  0.90589145    -0.13500
F497        F  0.53693393  0.69811288  0.95698176    -0.15800
F498        F  0.49363664  0.60551894  0.92502245    -0.14300
F499        F  0.48584451  0.61971607  0.98342771    -0.14300
F500        F  0.51525502  0.55442951  0.95839685    -0.15800
C501        C  0.05631850  0.58195018  0.93993666     0.14300
C502        C  0.06690102  0.60297668  0.95132987     0.01300
C503        C  0.06164309  0.59974129  0.97007110     0.16300
C504        C  0.04744298  0.57590399  0.97737281     0.25700
C505        C  0.03704650  0.55495528  0.96595224    -0.40700
C506        C  0.04118450  0.55829860  0.94713352     0.32700
C507        C  0.08493640  0.62778912  0.94382369     0.01300
F508        F  0.07074171  0.61964429  0.98139315    -0.13000
F509        F  0.03142526  0.53839441  0.93577430    -0.13500
C510        C  0.07935435  0.63688906  0.92806358     0.16300
C511        C  0.09749910  0.65877857  0.91982770     0.25700
C512        C  0.12143307  0.67238002  0.92743036    -0.40600
C513        C  0.12654360  0.66395927  0.94373575     0.32600
C514        C  0.10865063  0.64176341  0.95167278     0.14300
F515        F  0.05635758  0.62443418  0.92051541    -0.13000
F516        F  0.14940469  0.67628880  0.95146638    -0.13500
F517        F  0.09159846  0.66666129  0.90440887    -0.15800
F518        F  0.11510325  0.63322663  0.96648522    -0.14300
F519        F  0.06176462  0.58405965  0.92194199    -0.14300
F520        F  0.04471762  0.57321567  0.99566333    -0.15800
C521        C  0.08008672  0.48088321  0.96940695     0.14300
C522        C  0.07376075  0.46696713  0.95324405     0.01300
C523        C  0.04951980  0.45720063  0.94627597     0.16300
C524        C  0.03247110  0.46265620  0.95471131     0.25700
C525        C  0.03934361  0.47766164  0.97033114    -0.40700
C526        C  0.06297507  0.48602461  0.97791946     0.32700
C527        C  0.09317409  0.46460292  0.94301741     0.01300
F528        F  0.04278069  0.44337792  0.93083815    -0.13000
F529        F  0.07023044  0.50115166  0.99269010    -0.13500
C530        C  0.10661078  0.45456602  0.95134232     0.16300
C531        C  0.12620505  0.45410417  0.94219649     0.25700
C532        C  0.13286304  0.46376746  0.92448303    -0.40600
C533        C  0.11928224  0.47377427  0.91616134     0.32600
C534        C  0.09963686  0.47411723  0.92531577     0.14300
F535        F  0.10067436  0.44510944  0.96838536    -0.13000
F536        F  0.12562579  0.48427072  0.89944947    -0.13500
F537        F  0.13829425  0.44373822  0.95063065    -0.15800
F538        F  0.08758251  0.48473831  0.91714358    -0.14300
F539        F  0.10354414  0.49128518  0.97612273    -0.14300
F540        F  0.01001283  0.45500679  0.94684157    -0.15800
C541        C  0.57833985  0.06335575  0.05298955     0.14300
C542        C  0.59240365  0.08762884  0.04620528     0.01300
C543        C  0.58423891  0.09452591  0.03065172     0.16300
C544        C  0.56159515  0.07786080  0.02259726     0.25700
C545        C  0.54682727  0.05404963  0.02995477    -0.40700
C546        C  0.55565526  0.04662110  0.04488290     0.32700
C547        C  0.61417588  0.10660252  0.05629444     0.01300
F548        F  0.59736656  0.11799093  0.02405598    -0.13000
F549        F  0.54156259  0.02377060  0.05228333    -0.13500
C550        C  0.63797947  0.11776772  0.04854721     0.16300
C551        C  0.65823485  0.13693967  0.05767913     0.25700
C552        C  0.65493553  0.14529251  0.07472287    -0.40600
C553        C  0.63094573  0.13412118  0.08234840     0.32600
C554        C  0.61079729  0.11490543  0.07323566     0.14300
F555        F  0.64157229  0.10998832  0.03215500    -0.13000
F556        F  0.62672655  0.14244682  0.09828372    -0.13500
F557        F  0.68109827  0.14691945  0.04998589    -0.15800
F558        F  0.58775000  0.10496759  0.08065014    -0.14300
F559        F  0.58611039  0.05627859  0.06790172    -0.14300
F560        F  0.55328876  0.08542940  0.00825731    -0.15800
C561        C  0.86085593  0.33303022  0.04615258     0.14300
C562        C  0.87395532  0.35672405  0.05407180     0.01300
C563        C  0.86914571  0.35983844  0.07226680     0.16300
C564        C  0.85136134  0.33969490  0.08231661     0.25700
C565        C  0.83786390  0.31599806  0.07432062    -0.40700
C566        C  0.84306090  0.31284415  0.05617820     0.32700
C567        C  0.89181526  0.37847678  0.04322231     0.01300
F568        F  0.88097547  0.38267672  0.08010186    -0.13000
F569        F  0.83121407  0.29012606  0.04817995    -0.13500
C570        C  0.88356537  0.38590252  0.02794808     0.16300
C571        C  0.89955732  0.40806100  0.01900863     0.25700
C572        C  0.92407199  0.42320925  0.02515570    -0.40600
C573        C  0.93272348  0.41519650  0.03985023     0.32600
C574        C  0.91671085  0.39296129  0.04880409     0.14300
F575        F  0.85952035  0.37260187  0.02246388    -0.13000
F576        F  0.95613108  0.42970595  0.04626899    -0.13500
F577        F  0.89064175  0.41566898  0.00506159    -0.15800
F578        F  0.92520334  0.38600009  0.06337079    -0.14300
F579        F  0.86538165  0.32942908  0.02868740    -0.14300
F580        F  0.84659870  0.34373767  0.09960305    -0.15800
C581        C  0.43487740  0.11077148  0.04815561     0.14300
C582        C  0.44718294  0.09881102  0.05532593     0.01300
C583        C  0.45936544  0.10673371  0.07213204     0.16300
C584        C  0.45968253  0.12650591  0.08146758     0.25700
C585        C  0.44772806  0.13884800  0.07424311    -0.40700
C586        C  0.43508488  0.13057827  0.05753342     0.32700
C587        C  0.44955847  0.07965352  0.04481722     0.01300
F588        F  0.47207280  0.09605631  0.07914360    -0.13000
F589        F  0.42262088  0.14138172  0.05033693    -0.13500
C590        C  0.46220377  0.08591700  0.02810811     0.16300
C591        C  0.47014107  0.07042277  0.02036921     0.25700
C592        C  0.46535723  0.04838564  0.02912115    -0.40600
C593        C  0.45081921  0.04101662  0.04493396     0.32600
C594        C  0.44286681  0.05651174  0.05270345     0.14300
F595        F  0.46887455  0.10807701  0.02014067    -0.13000
F596        F  0.44609983  0.01983459  0.05361935    -0.13500
F597        F  0.48423602  0.07785565  0.00508316    -0.15800
F598        F  0.43002961  0.04971534  0.06856789    -0.14300
F599        F  0.42267589  0.10327277  0.03206230    -0.14300
F600        F  0.47283127  0.13428628  0.09715648    -0.15800
C601        C  0.43693121  0.34797499  0.06864075     0.14300
C602        C  0.45903769  0.36335718  0.05917669     0.01300
C603        C  0.47714847  0.35607216  0.05745338     0.16300
C604        C  0.47310553  0.33369226  0.06489475     0.25700
C605        C  0.45129122  0.31867597  0.07468238    -0.40700
C606        C  0.43322863  0.32590752  0.07652533     0.32700
C607        C  0.46369638  0.38730339  0.05147580     0.01300
F608        F  0.49917675  0.37109451  0.04914927    -0.13000
F609        F  0.41189027  0.31141477  0.08578071    -0.13500
C610        C  0.46294400  0.40536085  0.06265937     0.16300
C611        C  0.47009584  0.42894342  0.05580102     0.25700
C612        C  0.47824406  0.43478789  0.03779452    -0.40600
C613        C  0.47806460  0.41657800  0.02640079     0.32600
C614        C  0.47062230  0.39289526  0.03314645     0.14300
F615        F  0.45674693  0.40068553  0.08047502    -0.13000
F616        F  0.48627480  0.42215952  0.00901929    -0.13500
F617        F  0.47023603  0.44650396  0.06692677    -0.15800
F618        F  0.47087674  0.37561071  0.02193635    -0.14300
F619        F  0.41891130  0.35426969  0.07016439    -0.14300
F620        F  0.49100657  0.32724200  0.06327609    -0.15800
C621        C  0.87537643  0.54428780  0.04746375     0.14300
C622        C  0.88004357  0.52503672  0.05213217     0.01300
C623        C  0.86729802  0.50955326  0.06686456     0.16300
C624        C  0.85020942  0.51329891  0.07686390     0.25700
C625        C  0.84534833  0.53245142  0.07217894    -0.40700
C626        C  0.85811979  0.54796504  0.05741220     0.32700
C627        C  0.89784352  0.52052249  0.04164937     0.01300
F628        F  0.87103983  0.49040488  0.07128680    -0.13000
F629        F  0.85436342  0.56707302  0.05294638    -0.13500
C630        C  0.92011346  0.52466755  0.04975586     0.16300
C631        C  0.93483115  0.51627625  0.04129365     0.25700
C632        C  0.92736219  0.50351154  0.02469361    -0.40600
C633        C  0.90601149  0.50081959  0.01599573     0.32600
C634        C  0.89137180  0.50939050  0.02438557     0.14300
F635        F  0.92693512  0.53579389  0.06627284    -0.13000
F636        F  0.89861394  0.48855989  0.99990813    -0.13500
F637        F  0.95553697  0.51918567  0.04980911    -0.15800
F638        F  0.87001381  0.50530197  0.01625517    -0.14300
F639        F  0.88775523  0.55965453  0.03342955    -0.14300
F640        F  0.83777290  0.49765464  0.09075397    -0.15800
C641        C  0.62329333  0.52232441  0.07939658     0.14300
C642        C  0.62505738  0.53458337  0.06294758     0.01300
C643        C  0.64865103  0.54911539  0.05504241     0.16300
C644        C  0.66990587  0.55072977  0.06313673     0.25700
C645        C  0.66800550  0.53787121  0.07932658    -0.40700
C646        C  0.64447132  0.52399158  0.08751278     0.32700
C647        C  0.60202038  0.53044729  0.05351132     0.01300
F648        F  0.65111538  0.56175935  0.03944773    -0.13000
F649        F  0.64161108  0.51090287  0.10294254    -0.13500
C650        C  0.58415128  0.53420132  0.06264695     0.16300
C651        C  0.56074973  0.52629200  0.05484597     0.25700
C652        C  0.55493997  0.51485765  0.03768779    -0.40600
C653        C  0.57322515  0.51240094  0.02811584     0.32600
C654        C  0.59655087  0.52011616  0.03593554     0.14300
F655        F  0.58899695  0.54457011  0.07946612    -0.13000
F656        F  0.56782553  0.50086486  0.01171417    -0.13500
F657        F  0.54317766  0.52831917  0.06452087    -0.15800
F658        F  0.61307686  0.51568504  0.02690216    -0.14300
F659        F  0.60080950  0.50764393  0.08721247    -0.14300
F660        F  0.69238387  0.56518413  0.05526408    -0.15800
C661        C  0.34931789  0.86868624  0.56842771     0.14300
C662        C  0.34523952  0.87652209  0.55155423     0.01300
C663        C  0.32135412  0.86419285  0.54390409     0.16300
C664        C  0.30173847  0.84437449  0.55309000     0.25700
C665        C  0.30574137  0.83656249  0.57011593    -0.40700
C666        C  0.32985737  0.84886349  0.57757209     0.32700
C667        C  0.36659848  0.89617634  0.54149147     0.01300
F668        F  0.31701867  0.87151816  0.52760676    -0.13000
F669        F  0.33493657  0.84116061  0.59342061    -0.13500
C670        C  0.37502199  0.89001255  0.52565662     0.16300
C671        C  0.39816304  0.90676809  0.51829543     0.25700
C672        C  0.41303850  0.92994655  0.52657996    -0.40600
C673        C  0.40386754  0.93686110  0.54159221     0.32600
C674        C  0.38074065  0.92006653  0.54901687     0.14300
F675        F  0.36185299  0.86696861  0.51829051    -0.13000
F676        F  0.41819739  0.95907182  0.54988902    -0.13500
F677        F  0.40695602  0.89966854  0.50393541    -0.15800
F678        F  0.37280669  0.92652202  0.56419132    -0.14300
F679        F  0.37246747  0.87974687  0.57577746    -0.14300
F680        F  0.27877683  0.83328289  0.54548209    -0.15800
C681        C  0.24414247  0.77080745  0.73091652     0.14300
C682        C  0.22240509  0.75684156  0.74117515     0.01300
C683        C  0.19967401  0.74317336  0.73196160     0.16300
C684        C  0.19873476  0.74297143  0.71294120     0.25700
C685        C  0.22054623  0.75655462  0.70257380    -0.40700
C686        C  0.24324040  0.77077868  0.71187775     0.32700
C687        C  0.22331660  0.75648030  0.76142970     0.01300
F688        F  0.17817596  0.73029844  0.74142665    -0.13000
F689        F  0.26484697  0.78402916  0.70263921    -0.13500
C690        C  0.23377224  0.77872516  0.77147672     0.16300
C691        C  0.23383987  0.77831276  0.79050938     0.25700
C692        C  0.22315761  0.75561224  0.79997485    -0.40600
C693        C  0.21309018  0.73336854  0.78991777     0.32600
C694        C  0.21329007  0.73381414  0.77087590     0.14300
F695        F  0.24313439  0.80091163  0.76287234    -0.13000
F696        F  0.20347892  0.71114274  0.79849839    -0.13500
F697        F  0.24339068  0.80017486  0.79964240    -0.15800
F698        F  0.20390315  0.71203416  0.76163232    -0.14300
F699        F  0.26647799  0.78394253  0.73932131    -0.14300
F700        F  0.17625373  0.72989061  0.70475554    -0.15800
C701        C  0.19786540  0.44985037  0.76717254     0.14300
C702        C  0.21988123  0.46197073  0.75701937     0.01300
C703        C  0.24263188  0.47573334  0.76616821     0.16300
C704        C  0.24342488  0.47659733  0.78522403     0.25700
C705        C  0.22144982  0.46358542  0.79547502    -0.40700
C706        C  0.19860139  0.45056795  0.78618375     0.32700
C707        C  0.21906206  0.45924508  0.73694782     0.01300
F708        F  0.26406041  0.48846495  0.75660813    -0.13000
F709        F  0.17696772  0.43756832  0.79545160    -0.13500
C710        C  0.20859434  0.47026506  0.72608541     0.16300
C711        C  0.20709990  0.46694271  0.70719315     0.25700
C712        C  0.21586484  0.45230356  0.69876462    -0.40600
C713        C  0.22621199  0.44114188  0.70976789     0.32600
C714        C  0.22782502  0.44464687  0.72864696     0.14300
F715        F  0.20004482  0.48450080  0.73378824    -0.13000
F716        F  0.23404286  0.42613949  0.70237372    -0.13500
F717        F  0.19770399  0.47868444  0.69714092    -0.15800
F718        F  0.23733467  0.43319862  0.73893851    -0.14300
F719        F  0.17564807  0.43658436  0.75863749    -0.14300
F720        F  0.26562389  0.49055772  0.79362236    -0.15800
C721        C  0.33478356  0.43255822  0.56640669     0.14300
C722        C  0.34727427  0.45110918  0.55328177     0.01300
C723        C  0.33746750  0.46640310  0.54827391     0.16300
C724        C  0.31599586  0.46370788  0.55661587     0.25700
C725        C  0.30401465  0.44576623  0.57020353    -0.40700
C726        C  0.31338152  0.42999152  0.57487279     0.32700
C727        C  0.37186028  0.45649676  0.54619100     0.01300
F728        F  0.34948611  0.48491585  0.53600894    -0.13000
F729        F  0.30173404  0.41202940  0.58757687    -0.13500
C730        C  0.37621581  0.45727066  0.52738771     0.16300
C731        C  0.40047197  0.46698901  0.52074698     0.25700
C732        C  0.42066072  0.47580020  0.53283240    -0.40600
C733        C  0.41607467  0.47344210  0.55161670     0.32600
C734        C  0.39190674  0.46393361  0.55824574     0.14300
F735        F  0.35709114  0.44971142  0.51547089    -0.13000
F736        F  0.43526466  0.48181709  0.56354886    -0.13500
F737        F  0.40441963  0.46936990  0.50254487    -0.15800
F738        F  0.38834386  0.46382244  0.57644729    -0.14300
F739        F  0.34351705  0.41715086  0.57116502    -0.14300
F740        F  0.30779835  0.47966042  0.55218026    -0.15800
C741        C  0.50453629  0.88031264  0.58082860     0.14300
C742        C  0.51832745  0.89304466  0.56537583     0.01300
C743        C  0.53712938  0.88839609  0.55916933     0.16300
C744        C  0.54106773  0.87033809  0.56752639     0.25700
C745        C  0.52657351  0.85684089  0.58246922    -0.40700
C746        C  0.50871623  0.86249276  0.58935423     0.32700
C747        C  0.51146317  0.90913593  0.55465604     0.01300
F748        F  0.55150115  0.90119802  0.54481016    -0.13000
F749        F  0.49428635  0.84976696  0.60372062    -0.13500
C750        C  0.51094530  0.92956279  0.56259663     0.16300
C751        C  0.50242718  0.94315431  0.55262651     0.25700
C752        C  0.49431360  0.93658567  0.53459824    -0.40600
C753        C  0.49525623  0.91652587  0.52657556     0.32600
C754        C  0.50384502  0.90300971  0.53646506     0.14300
F755        F  0.51811409  0.93598185  0.58011134    -0.13000
F756        F  0.48644921  0.90911627  0.50949159    -0.13500
F757        F  0.50084956  0.96195154  0.56083747    -0.15800
F758        F  0.50326474  0.88289811  0.52861801    -0.14300
F759        F  0.48608225  0.88413716  0.58709756    -0.14300
F760        F  0.55919971  0.86615596  0.56108587    -0.15800
C761        C  0.53512771  0.64982848  0.55716168     0.14300
C762        C  0.51145783  0.62843978  0.55734634     0.01300
C763        C  0.49194483  0.62932815  0.56644553     0.16300
C764        C  0.49598235  0.65110288  0.57520302     0.25700
C765        C  0.51945336  0.67265862  0.57470188    -0.40700
C766        C  0.53903176  0.67187964  0.56559040     0.32700
C767        C  0.50668422  0.60531794  0.54771227     0.01300
F768        F  0.46896179  0.60893444  0.56701354    -0.13000
F769        F  0.56204086  0.69223962  0.56526881    -0.13500
C770        C  0.51669727  0.59074235  0.55411865     0.16300
C771        C  0.51014755  0.56780527  0.54589987     0.25700
C772        C  0.49368780  0.55921944  0.53106323    -0.40600
C773        C  0.48430795  0.57414552  0.52435783     0.32600
C774        C  0.49071676  0.59693915  0.53260130     0.14300
F775        F  0.53169519  0.59807115  0.56894007    -0.13000
F776        F  0.46804768  0.56607065  0.51026362    -0.13500
F777        F  0.51871998  0.55331057  0.55304568    -0.15800
F778        F  0.48079133  0.61060361  0.52613007    -0.14300
F779        F  0.55434966  0.64939431  0.54864855    -0.14300
F780        F  0.47681505  0.65125926  0.58403618    -0.15800
C781        C  0.52072302  0.73937128  0.73433180     0.14300
C782        C  0.51507853  0.75558860  0.74383945     0.01300
C783        C  0.50827788  0.77074178  0.73418596     0.16300
C784        C  0.50790249  0.77035942  0.71523288     0.25700
C785        C  0.51468717  0.75499800  0.70552251    -0.40700
C786        C  0.52061203  0.73909533  0.71532148     0.32700
C787        C  0.51692207  0.75733118  0.76382385     0.01300
F788        F  0.50192289  0.78591501  0.74318693    -0.13000
F789        F  0.52738410  0.72405806  0.70662263    -0.13500
C790        C  0.53502168  0.77932753  0.77213852     0.16300
C791        C  0.53655621  0.78131135  0.79106503     0.25700
C792        C  0.52016007  0.76119850  0.80193186    -0.40600
C793        C  0.50201237  0.73920094  0.79356805     0.32600
C794        C  0.50039161  0.73731119  0.77464323     0.14300
F795        F  0.55149678  0.79870726  0.76187372    -0.13000
F796        F  0.48537467  0.71978716  0.80372261    -0.13500
F797        F  0.55457937  0.80256456  0.79875330    -0.15800
F798        F  0.48238059  0.71613751  0.76685527    -0.14300
F799        F  0.52723750  0.72446449  0.74347121    -0.14300
F800        F  0.50054148  0.78483603  0.70645629    -0.15800
C801        C  0.07698803  0.46988372  0.52201598     0.14300
C802        C  0.07174163  0.45780269  0.53889905     0.01300
C803        C  0.04911955  0.45139491  0.54761020     0.16300
C804        C  0.03285037  0.45856394  0.54019227     0.25700
C805        C  0.03887762  0.47194742  0.52388117    -0.40700
C806        C  0.06061247  0.47686607  0.51455082     0.32700
C807        C  0.09110342  0.45481820  0.54850011     0.01300
F808        F  0.04348034  0.43937511  0.56379507    -0.13000
F809        F  0.06683312  0.49011784  0.49888982    -0.13500
C810        C  0.10109468  0.46782323  0.56476763     0.16300
C811        C  0.11953804  0.46556948  0.57401808     0.25700
C812        C  0.12849198  0.45027729  0.56718214    -0.40600
C813        C  0.11894894  0.43773858  0.55058020     0.32600
C814        C  0.10033908  0.43996318  0.54134200     0.14300
F815        F  0.09340706  0.48331584  0.57146367    -0.13000
F816        F  0.12713285  0.42284769  0.54351439    -0.13500
F817        F  0.12928635  0.47914390  0.58935297    -0.15800
F818        F  0.09105333  0.42734178  0.52556919    -0.14300
F819        F  0.09888990  0.47672402  0.51350936    -0.14300
F820        F  0.01210561  0.45400750  0.54952590    -0.15800
C821        C  0.09757994  0.64076422  0.55103483     0.14300
C822        C  0.09084797  0.61650943  0.55643690     0.01300
C823        C  0.10274275  0.61318771  0.57156332     0.16300
C824        C  0.12122802  0.63372516  0.58097497     0.25700
C825        C  0.12829048  0.65803584  0.57539610    -0.40700
C826        C  0.11610293  0.66133353  0.56042140     0.32700
C827        C  0.07204569  0.59463314  0.54602197     0.01300
F828        F  0.09703506  0.58999324  0.57685301    -0.13000
F829        F  0.12175248  0.68449037  0.55509079    -0.13500
C830        C  0.07673060  0.59084036  0.52793123     0.16300
C831        C  0.06036744  0.56886374  0.51876015     0.25700
C832        C  0.03894802  0.55041246  0.52745230    -0.40600
C833        C  0.03375332  0.55464293  0.54526971     0.32600
C834        C  0.05013147  0.57657369  0.55446972     0.14300
F835        F  0.09805172  0.60763615  0.51959757    -0.13000
F836        F  0.01366497  0.53674488  0.55417098    -0.13500
F837        F  0.06635743  0.56474161  0.50186556    -0.15800
F838        F  0.04509841  0.57979187  0.57189098    -0.14300
F839        F  0.08601154  0.64450545  0.53674674    -0.14300
F840        F  0.13296225  0.62979444  0.59506365    -0.15800
C841        C  0.85188415  0.33343674  0.45150550     0.14300
C842        C  0.87654762  0.34588543  0.44512600     0.01300
C843        C  0.88333212  0.33503623  0.43106873     0.16300
C844        C  0.86567547  0.31264855  0.42313098     0.25700
C845        C  0.84090304  0.30048217  0.42920836    -0.40700
C846        C  0.83426438  0.31083612  0.44371624     0.32700
C847        C  0.89479573  0.37084240  0.45228981     0.01300
F848        F  0.90711015  0.34626976  0.42492205    -0.13000
F849        F  0.81040653  0.29985252  0.44967344    -0.13500
C850        C  0.90021079  0.37476769  0.47095933     0.16300
C851        C  0.91612214  0.39874739  0.47768013     0.25700
C852        C  0.92752194  0.41913078  0.46575689    -0.40600
C853        C  0.92281080  0.41488407  0.44700234     0.32600
C854        C  0.90636727  0.39114156  0.44039243     0.14300
F855        F  0.88977886  0.35540184  0.48271207    -0.13000
F856        F  0.93341730  0.43406512  0.43509147    -0.13500
F857        F  0.91950791  0.40216918  0.49588701    -0.15800
F858        F  0.90083188  0.38819825  0.42240089    -0.14300
F859        F  0.84452970  0.34377571  0.46466070    -0.14300
F860        F  0.87284881  0.30277892  0.40951854    -0.15800
C861        C  0.64161678  0.09591926  0.45307967     0.14300
C862        C  0.61795282  0.08863316  0.44588904     0.01300
C863        C  0.61616184  0.09900462  0.42940512     0.16300
C864        C  0.63750906  0.11650781  0.42037929     0.25700
C865        C  0.66125669  0.12411875  0.42762031    -0.40700
C866        C  0.66308646  0.11358110  0.44407427     0.32700
C867        C  0.59498634  0.07161739  0.45599022     0.01300
F868        F  0.59360277  0.09302532  0.42239601    -0.13000
F869        F  0.68562383  0.12011194  0.45136454    -0.13500
C870        C  0.59109047  0.07781308  0.47362995     0.16300
C871        C  0.56798045  0.06395001  0.48210922     0.25700
C872        C  0.54850310  0.04373238  0.47309603    -0.40600
C873        C  0.55259364  0.03691890  0.45580090     0.32600
C874        C  0.57572411  0.05059802  0.44736443     0.14300
F875        F  0.60907385  0.09832173  0.48212334    -0.13000
F876        F  0.53370520  0.01783703  0.44669835    -0.13500
F877        F  0.56411864  0.07112536  0.49865289    -0.15800
F878        F  0.57902311  0.04391304  0.43046377    -0.14300
F879        F  0.64392894  0.08586816  0.46880959    -0.14300
F880        F  0.63472091  0.12692381  0.40501605    -0.15800
C881        C  0.73188684  0.20299922  0.27096136     0.14300
C882        C  0.74496394  0.22625786  0.26253654     0.01300
C883        C  0.75777384  0.24766968  0.27325051     0.16300
C884        C  0.75784003  0.24582466  0.29218873     0.25700
C885        C  0.74536215  0.22242640  0.30072002    -0.40700
C886        C  0.73213819  0.20103822  0.28986395     0.32700
C887        C  0.74584563  0.22798273  0.24252061     0.01300
F888        F  0.77013339  0.27038233  0.26533482    -0.13000
F889        F  0.72032098  0.17806908  0.29739429    -0.13500
C890        C  0.72461324  0.22330919  0.23263359     0.16300
C891        C  0.72517281  0.22382434  0.21363026     0.25700
C892        C  0.74704732  0.22904077  0.20422010    -0.40600
C893        C  0.76836039  0.23394542  0.21422717     0.32600
C894        C  0.76773458  0.23340744  0.23321618     0.14300
F895        F  0.70338975  0.21838694  0.24143450    -0.13000
F896        F  0.78951860  0.23823072  0.20564629    -0.13500
F897        F  0.70446432  0.21971190  0.20447478    -0.15800
F898        F  0.78829501  0.23743986  0.24255369    -0.14300
F899        F  0.71952787  0.18206579  0.26079118    -0.14300
F900        F  0.76977756  0.26699229  0.30214709    -0.15800
C901        C  0.86770910  0.53095708  0.45268265     0.14300
C902        C  0.87715138  0.51748382  0.44346062     0.01300
C903        C  0.86728848  0.50735340  0.42630988     0.16300
C904        C  0.84880000  0.51100367  0.41843815     0.25700
C905        C  0.83946428  0.52464987  0.42760039    -0.40700
C906        C  0.84884100  0.53419842  0.44496927     0.32700
C907        C  0.89621644  0.51280346  0.45208455     0.01300
F908        F  0.87500262  0.49322571  0.41733941    -0.13000
F909        F  0.84033544  0.54734848  0.45432718    -0.13500
C910        C  0.89216289  0.50243123  0.46960194     0.16300
C911        C  0.90869074  0.49570553  0.47710552     0.25700
C912        C  0.92936504  0.49881918  0.46720388    -0.40600
C913        C  0.93404230  0.50991734  0.44997527     0.32600
C914        C  0.91777123  0.51715431  0.44254901     0.14300
F915        F  0.87124052  0.49712669  0.47897689    -0.13000
F916        F  0.95359755  0.51247655  0.43997045    -0.13500
F917        F  0.90352410  0.48436681  0.49354464    -0.15800
F918        F  0.92268407  0.52772915  0.42582691    -0.14300
F919        F  0.87711168  0.54144643  0.46907751    -0.14300
F920        F  0.83946471  0.50038090  0.40206228    -0.15800
C921        C  0.58066267  0.52523989  0.44115115     0.14300
C922        C  0.60195817  0.53248839  0.45183848     0.01300
C923        C  0.59974800  0.53172078  0.47086478     0.16300
C924        C  0.57640606  0.52221631  0.47908086     0.25700
C925        C  0.55491260  0.51341746  0.46838775    -0.40700
C926        C  0.55728907  0.51566491  0.44937481     0.32700
C927        C  0.62571746  0.53750546  0.44333488     0.01300
F928        F  0.62012768  0.53893496  0.48145085    -0.13000
F929        F  0.53673198  0.50707531  0.43876256    -0.13500
C930        C  0.63919770  0.55804955  0.43191667     0.16300
C931        C  0.66152395  0.56214934  0.42394570     0.25700
C932        C  0.67074959  0.54586882  0.42742841    -0.40600
C933        C  0.65710871  0.52529641  0.43877824     0.32600
C934        C  0.63476631  0.52108552  0.44653376     0.14300
F935        F  0.63090880  0.57425569  0.42869874    -0.13000
F936        F  0.66485461  0.50861576  0.44177100    -0.13500
F937        F  0.67438128  0.58227587  0.41313571    -0.15800
F938        F  0.62151729  0.50049226  0.45683448    -0.14300
F939        F  0.58224568  0.52565434  0.42275326    -0.14300
F940        F  0.57458076  0.51986875  0.49741890    -0.15800
C941        C  0.78031648  0.54833657  0.27175355     0.14300
C942        C  0.75773175  0.53604150  0.26225575     0.01300
C943        C  0.73526763  0.52491122  0.27200572     0.16300
C944        C  0.73543507  0.52626089  0.29099288     0.25700
C945        C  0.75809218  0.53869209  0.30049333    -0.40700
C946        C  0.78051836  0.54960232  0.29068304     0.32700
C947        C  0.75783891  0.53568423  0.24216542     0.01300
F948        F  0.71320649  0.51249698  0.26313653    -0.13000
F949        F  0.80268176  0.56239361  0.29935764    -0.13500
C950        C  0.77027672  0.52533679  0.23274805     0.16300
C951        C  0.77182293  0.52648825  0.21379031     0.25700
C952        C  0.76083208  0.53792931  0.20389053    -0.40600
C953        C  0.74817859  0.54809332  0.21339715     0.32600
C954        C  0.74668365  0.54693234  0.23234264     0.14300
F955        F  0.78070919  0.51385411  0.24194832    -0.13000
F956        F  0.73795952  0.55996487  0.20444911    -0.13500
F957        F  0.78348580  0.51578339  0.20514330    -0.15800
F958        F  0.73501313  0.55753017  0.24115610    -0.14300
F959        F  0.80222271  0.55984123  0.26262210    -0.14300
F960        F  0.71349512  0.51490339  0.30008606    -0.15800
C961        C  0.43494779  0.09017554  0.43186280     0.14300
C962        C  0.45246922  0.09550754  0.44576702     0.01300
C963        C  0.46847573  0.12045551  0.45062713     0.16300
C964        C  0.46693700  0.13964068  0.44185561     0.25700
C965        C  0.44965935  0.13432310  0.42780525    -0.40700
C966        C  0.43367868  0.10942832  0.42288114     0.32700
C967        C  0.45539476  0.07544787  0.45444593     0.01300
F968        F  0.48638642  0.12634295  0.46336600    -0.13000
F969        F  0.41653259  0.10372538  0.40956766    -0.13500
C970        C  0.46096550  0.06000947  0.44377130     0.16300
C971        C  0.46774825  0.04392303  0.45197023     0.25700
C972        C  0.46941206  0.04313494  0.47096765    -0.40600
C973        C  0.46227699  0.05732115  0.48170587     0.32600
C974        C  0.45510477  0.07320174  0.47349246     0.14300
F975        F  0.46169570  0.06183621  0.42538964    -0.13000
F976        F  0.46380122  0.05701636  0.50007919    -0.13500
F977        F  0.47438179  0.03025282  0.44132937    -0.15800
F978        F  0.44885876  0.08718500  0.48412449    -0.14300
F979        F  0.41900361  0.06630530  0.42701730    -0.14300
F980        F  0.48319373  0.16351101  0.44651829    -0.15800
C981        C  0.46221672  0.39844596  0.45006940     0.14300
C982        C  0.47129936  0.38346063  0.45717958     0.01300
C983        C  0.48578709  0.39105648  0.47306415     0.16300
C984        C  0.49210808  0.41389993  0.48118783     0.25700
C985        C  0.48387818  0.42934309  0.47360430    -0.40700
C986        C  0.46845482  0.42121376  0.45823668     0.32700
C987        C  0.46742868  0.36102841  0.44720209     0.01300
F988        F  0.49506137  0.37705859  0.48002921    -0.13000
F989        F  0.46062713  0.43602117  0.45056603    -0.13500
C990        C  0.47816545  0.36345085  0.43000116     0.16300
C991        C  0.47552519  0.34258380  0.42071827     0.25700
C992        C  0.46177472  0.31867734  0.42836885    -0.40600
C993        C  0.45075372  0.31631674  0.44556239     0.32600
C994        C  0.45370619  0.33732679  0.45491281     0.14300
F995        F  0.49190023  0.38623162  0.42239339    -0.13000
F996        F  0.43663500  0.29366184  0.45322019    -0.13500
F997        F  0.48731749  0.34608101  0.40455041    -0.15800
F998        F  0.44286954  0.33451477  0.47142007    -0.14300
F999        F  0.44800316  0.39137125  0.43483915    -0.14300
F1000       F  0.50728388  0.42154603  0.49591409    -0.15800
C1001       C  0.48583257  0.25613172  0.27127928     0.14300
C1002       C  0.46638289  0.23695626  0.26136330     0.01300
C1003       C  0.44802171  0.21615602  0.27062690     0.16300
C1004       C  0.44906895  0.21442158  0.28949608     0.25700
C1005       C  0.46817225  0.23377464  0.29951792    -0.40700
C1006       C  0.48655589  0.25470208  0.29026204     0.32700
C1007       C  0.46523536  0.23817555  0.24132191     0.01300
F1008       F  0.42906113  0.19743289  0.26133000    -0.13000
F1009       F  0.50538820  0.27355635  0.29957415    -0.13500
C1010       C  0.48234756  0.23543561  0.23044610     0.16300
C1011       C  0.47991111  0.23422164  0.21151086     0.25700
C1012       C  0.46062622  0.23628126  0.20311985    -0.40600
C1013       C  0.44393551  0.23978423  0.21401301     0.32600
C1014       C  0.44606811  0.24044360  0.23297459     0.14300
F1015       F  0.50099815  0.23320707  0.23822420    -0.13000
F1016       F  0.42493848  0.24151850  0.20634247    -0.13500
F1017       F  0.49658194  0.23130634  0.20135192    -0.15800
F1018       F  0.42925830  0.24301386  0.24323633    -0.14300
F1019       F  0.50386328  0.27636117  0.26259168    -0.14300
F1020       F  0.43084137  0.19419623  0.29804234    -0.15800
loop_ 
_geom_bond_atom_site_label_1 
_geom_bond_atom_site_label_2 
_geom_bond_distance 
_geom_bond_site_symmetry_2 
_ccdc_geom_bond_type 
N1            N2   1.324       .  A
N1            C5   1.346       .  A
N1           Cu9   2.084       .  S
N2            C3   1.346       .  A
N2           Cu8   2.079       .  S
C3            C4   1.384       .  A
C3            H6   1.084       .  S
C4            C5   1.385       .  A
C4          C965   1.481       .  S
C5            H7   1.082       .  S
Cu8          N11   2.079       .  S
Cu9          N19   2.084       .  S
Cu10         N12   2.070       .  S
Cu10         N18   2.070       .  S
N11          N12   1.320       .  A
N11          C15   1.346       .  A
N12          C13   1.343       .  A
C13          C14   1.387       .  A
C13          H16   1.081       .  S
C14          C15   1.390       .  A
C14         C992   1.490       .  S
C15          H17   1.081       .  S
N18          N19   1.322       .  A
N18          C22   1.345       .  A
N19          C20   1.347       .  A
C20          C21   1.387       .  A
C20          H23   1.082       .  S
C21          C22   1.383       .  A
C21        C1005   1.480       .  S
C22          H24   1.082       .  S
N25          N26   1.321       .  A
N25          C29   1.342       .  A
N25         Cu33   2.063       .  S
N26          C27   1.350       .  A
N26         Cu32   2.095       .  S
C27          C28   1.392       .  A
C27          H30   1.084       .  S
C28          C29   1.384       .  A
C28         C905   1.489       .  S
C29          H31   1.080       .  S
Cu32         N35   2.095       .  S
Cu33         N43   2.063       .  S
Cu34         N36   2.073       .  S
Cu34         N42   2.072       .  S
N35          N36   1.324       .  A
N35          C39   1.347       .  A
N36          C37   1.346       .  A
C37          C38   1.382       .  A
C37          H40   1.082       .  S
C38          C39   1.388       .  A
C38         C932   1.482       .  S
C39          H41   1.083       .  S
N42          N43   1.320       .  A
N42          C46   1.346       .  A
N43          C44   1.343       .  A
C44          C45   1.383       .  A
C44          H47   1.081       .  S
C45          C46   1.386       .  A
C45         C945   1.478       .  S
C46          H48   1.081       .  S
N49          N50   1.325       .  A
N49          C53   1.343       .  A
N49         Cu57   2.075       .  S
N50          C51   1.346       .  A
N50         Cu56   2.081       .  S
C51          C52   1.386       .  A
C51          H54   1.092       .  S
C52          C53   1.384       .  A
C52         C845   1.482       .  S
C53          H55   1.090       .  S
Cu56         N59   2.081       .  S
Cu57         N67   2.075       .  S
Cu58         N60   2.068       .  S
Cu58         N66   2.068       .  S
N59          N60   1.322       .  A
N59          C63   1.347       .  A
N60          C61   1.342       .  A
C61          C62   1.385       .  A
C61          H64   1.080       .  S
C62          C63   1.388       .  A
C62         C865   1.485       .  S
C63          H65   1.084       .  S
N66          N67   1.320       .  A
N66          C70   1.344       .  A
N67          C68   1.345       .  A
C68          C69   1.388       .  A
C68          H71   1.081       .  S
C69          C70   1.387       .  A
C69         C885   1.486       .  S
C70          H72   1.081       .  S
C73          C74   1.395       .  A
C73          C78   1.414       .  A
C73         C912   1.481       .  S
C74          C75   1.399       .  A
C74          H93   1.086       .  S
C75          C76   1.421       .  A
C75         C852   1.496       .  S
C76          C77   1.426       .  A
C76          C83   1.406       .  A
C77          C78   1.421       .  A
C77          C82   1.423       .  A
C78          C79   1.407       .  A
C79          C80   1.398       .  A
C79          H89   1.083       .  S
C80          C81   1.405   1_655  A
C80          H90   1.083   1_655  S
C81          C82   1.425   1_455  A
C81          C88   1.419       .  A
C82          C85   1.420   1_655  A
C83          C84   1.394       .  A
C83          H91   1.081       .  S
C84          C85   1.405   1_655  A
C84          H92   1.083   1_655  S
C85          C86   1.412       .  A
C86          C87   1.395       .  A
C86         C805   1.478       .  S
C87          C88   1.395       .  A
C87          H94   1.086       .  S
C88         C832   1.486       .  S
N95          N96   1.324       .  A
N95          C99   1.344       .  A
N95        Cu103   2.064       .  S
N96          C97   1.351       .  A
N96        Cu102   2.116       .  S
C97          C98   1.392       .  A
C97         H100   1.085       .  S
C98          C99   1.381       .  A
C98         C745   1.487       .  S
C99         H101   1.083       .  S
Cu102       N105   2.117       .  S
Cu103       N113   2.063       .  S
Cu104       N106   2.073       .  S
Cu104       N112   2.072       .  S
N105        N106   1.325       .  A
N105        C109   1.354       .  A
N106        C107   1.344       .  A
C107        C108   1.380       .  A
C107        H110   1.083       .  S
C108        C109   1.391       .  A
C108        C765   1.485       .  S
C109        H111   1.083       .  S
N112        N113   1.319       .  A
N112        C116   1.346       .  A
N113        C114   1.342       .  A
C114        C115   1.387       .  A
C114        H117   1.080       .  S
C115        C116   1.389       .  A
C115        C785   1.486       .  S
C116        H118   1.080       .  S
N119        N120   1.322       .  A
N119        C123   1.345       .  A
N119       Cu127   2.090       .  S
N120        C121   1.347       .  A
N120       Cu126   2.072       .  S
C121        C122   1.385       .  A
C121        H124   1.084       .  S
C122        C123   1.388       .  A
C122        C812   1.486       .  S
C123        H125   1.081       .  S
Cu126       N129   2.072       .  S
Cu127       N137   2.091       .  S
Cu128       N130   2.081       .  S
Cu128       N136   2.081       .  S
N129        N130   1.323       .  A
N129        C133   1.344       .  A
N130        C131   1.346       .  A
C131        C132   1.384       .  A
C131        H134   1.082       .  S
C132        C133   1.383       .  A
C132        C725   1.477       .  S
C133        H135   1.084       .  S
N136        N137   1.322       .  A
N136        C140   1.347       .  A
N137        C138   1.347       .  A
C138        C139   1.390       .  A
C138        H141   1.081       .  S
C139        C140   1.388       .  A
C139        C712   1.492       .  S
C140        H142   1.080       .  S
N143        N144   1.323       .  A
N143        C147   1.348       .  A
N143       Cu151   2.090       .  S
N144        C145   1.347       .  A
N144       Cu150   2.082       .  S
C145        C146   1.386       .  A
C145        H148   1.081       .  S
C146        C147   1.387       .  A
C146        C825   1.487       .  S
C147        H149   1.080       .  S
Cu150       N153   2.081       .  S
Cu151       N161   2.089       .  S
Cu152       N154   2.079       .  S
Cu152       N160   2.080       .  S
N153        N154   1.322       .  A
N153        C157   1.347       .  A
N154        C155   1.344       .  A
C155        C156   1.386       .  A
C155        H158   1.081       .  S
C156        C157   1.389       .  A
C156        C665   1.487       .  S
C157        H159   1.084       .  S
N160        N161   1.321       .  A
N160        C164   1.347       .  A
N161        C162   1.347       .  A
C162        C163   1.392       .  A
C162        H165   1.081       .  S
C163        C164   1.391       .  A
C163        C685   1.497       .  S
C164        H166   1.082       .  S
C167        C168   1.398       .  A
C167        C172   1.418       .  A
C167        C972   1.488       .  S
C168        C169   1.395       .  A
C168        H187   1.086       .  S
C169        C170   1.413       .  A
C169        C872   1.478       .  S
C170        C171   1.419   1_545  A
C170        C177   1.407       .  A
C171        C172   1.425   1_565  A
C171        C176   1.421       .  A
C172        C173   1.405   1_545  A
C173        C174   1.395       .  A
C173        H183   1.082   1_565  S
C174        C175   1.406       .  A
C174        H184   1.083       .  S
C175        C176   1.419       .  A
C175        C182   1.413       .  A
C176        C179   1.425       .  A
C177        C178   1.396   1_545  A
C177        H185   1.083       .  S
C178        C179   1.404       .  A
C178        H186   1.083       .  S
C179        C180   1.417       .  A
C180        C181   1.395       .  A
C180        C752   1.486       .  S
C181        C182   1.397       .  A
C181        H188   1.086       .  S
C182        C672   1.477       .  S
C189        C190   1.396       .  A
C189        C194   1.415       .  A
C189        C985   1.484       .  S
C190        C191   1.399       .  A
C190        H209   1.086       .  S
C191        C192   1.418       .  A
C191        C925   1.486       .  S
C192        C193   1.422       .  A
C192        C199   1.407       .  A
C193        C194   1.423       .  A
C193        C198   1.423       .  A
C194        C195   1.404       .  A
C195        C196   1.394       .  A
C195        H205   1.083       .  S
C196        C197   1.407       .  A
C196        H206   1.082       .  S
C197        C198   1.421       .  A
C197        C204   1.416       .  A
C198        C201   1.424       .  A
C199        C200   1.397       .  A
C199        H207   1.082       .  S
C200        C201   1.405       .  A
C200        H208   1.083       .  S
C201        C202   1.418       .  A
C202        C203   1.397       .  A
C202        C772   1.490       .  S
C203        C204   1.400       .  A
C203        H210   1.086       .  S
C204        C732   1.486       .  S
N211        N212   1.326       .  A
N211        C215   1.347       .  A
N211       Cu219   2.089       .  S
N212        C213   1.349       .  A
N212       Cu218   2.098       .  S
C213        C214   1.386       .  A
C213        H216   1.084       .  S
C214        C215   1.384       .  A
C214        C625   1.483       .  S
C215        H217   1.081       .  S
Cu218       N221   2.098       .  S
Cu219       N229   2.087       .  S
Cu220       N222   2.055       .  S
Cu220       N228   2.053       .  S
N221        N222   1.321       .  A
N221        C225   1.350       .  A
N222        C223   1.342       .  A
C223        C224   1.383       .  A
C223        H226   1.081       .  S
C224        C225   1.393       .  A
C224        C645   1.488       .  S
C225        H227   1.083       .  S
N228        N229   1.320       .  A
N228        C232   1.341       .  A
N229        C230   1.348       .  A
C230        C231   1.391       .  A
C230        H233   1.081       .  S
C231        C232   1.382       .  A
C231        C952   1.483       .  S
C232        H234   1.081       .  S
N235        N236   1.322       .  A
N235        C239   1.344       .  A
N235       Cu243   2.083       .  S
N236        C237   1.345       .  A
N236       Cu242   2.069       .  S
C237        C238   1.386       .  A
C237        H240   1.083       .  S
C238        C239   1.388       .  A
C238        C585   1.487       .  S
C239        H241   1.081       .  S
Cu242       N245   2.069       .  S
Cu243       N253   2.083       .  S
Cu244       N246   2.072       .  S
Cu244       N252   2.073       .  S
N245        N246   1.323       .  A
N245        C249   1.345       .  A
N246        C247   1.343       .  A
C247        C248   1.380       .  A
C247        H250   1.082       .  S
C248        C249   1.381       .  A
C248        C605   1.468       .  S
C249        H251   1.083       .  S
N252        N253   1.321       .  A
N252        C256   1.346       .  A
N253        C254   1.347       .  A
C254        C255   1.386       .  A
C254        H257   1.080       .  S
C255        C256   1.385       .  A
C255       C1012   1.482       .  S
C256        H258   1.081       .  S
N259        N260   1.322       .  A
N259        C263   1.347       .  A
N259       Cu267   2.083       .  S
N260        C261   1.344       .  A
N260       Cu266   2.073       .  S
C261        C262   1.386       .  A
C261        H264   1.084       .  S
C262        C263   1.389       .  A
C262        C565   1.487       .  S
C263        H265   1.081       .  S
Cu266       N269   2.072       .  S
Cu267       N277   2.082       .  S
Cu268       N270   2.070       .  S
Cu268       N276   2.071       .  S
N269        N270   1.321       .  A
N269        C273   1.345       .  A
N270        C271   1.343       .  A
C271        C272   1.386       .  A
C271        H274   1.080       .  S
C272        C273   1.387       .  A
C272        C552   1.482       .  S
C273        H275   1.084       .  S
N276        N277   1.322       .  A
N276        C280   1.345       .  A
N277        C278   1.346       .  A
C278        C279   1.387       .  A
C278        H281   1.081       .  S
C279        C280   1.385       .  A
C279        C892   1.483       .  S
C280        H282   1.081       .  S
C283        C284   1.398       .  A
C283        C288   1.419       .  A
C283        C572   1.485       .  S
C284        C285   1.394       .  A
C284        H303   1.086       .  S
C285        C286   1.410       .  A
C285        C632   1.480       .  S
C286        C287   1.421       .  A
C286        C293   1.403       .  A
C287        C288   1.423       .  A
C287        C292   1.421   1_554  A
C288        C289   1.407       .  A
C289        C290   1.399   1_554  A
C289        H299   1.083       .  S
C290        C291   1.406   1_655  A
C290        H300   1.083   1_655  S
C291        C292   1.422   1_455  A
C291        C298   1.416       .  A
C292        C295   1.424   1_655  A
C293        C294   1.391   1_554  A
C293        H301   1.083       .  S
C294        C295   1.406   1_655  A
C294        H302   1.081       .  S
C295        C296   1.416       .  A
C296        C297   1.395       .  A
C296        C505   1.488       .  S
C297        C298   1.396       .  A
C297        H304   1.086       .  S
C298        C525   1.481       .  S
N305        N306   1.323       .  A
N305        C309   1.345       .  A
N305       Cu313   2.079       .  S
N306        C307   1.344       .  A
N306       Cu312   2.068       .  S
C307        C308   1.383       .  A
C307        H310   1.083       .  S
C308        C309   1.385       .  A
C308        C465   1.479       .  S
C309        H311   1.082       .  S
Cu312       N315   2.067       .  S
Cu313       N323   2.078       .  S
Cu314       N316   2.061       .  S
Cu314       N322   2.062       .  S
N315        N316   1.320       .  A
N315        C319   1.342       .  A
N316        C317   1.343       .  A
C317        C318   1.386       .  A
C317        H320   1.080       .  S
C318        C319   1.386       .  A
C318        C492   1.481       .  S
C319        H321   1.084       .  S
N322        N323   1.322       .  A
N322        C326   1.342       .  A
N323        C324   1.346       .  A
C324        C325   1.386       .  A
C324        H327   1.082       .  S
C325        C326   1.381       .  A
C325        C792   1.476       .  S
C326        H328   1.082       .  S
N329        N330   1.320       .  A
N329        C333   1.345       .  A
N329       Cu337   2.071       .  S
N330        C331   1.346       .  A
N330       Cu336   2.081       .  S
C331        C332   1.390       .  A
C331        H334   1.083       .  S
C332        C333   1.388       .  A
C332        C532   1.490       .  S
C333        H335   1.080       .  S
Cu336       N339   2.082       .  S
Cu337       N347   2.072       .  S
Cu338       N340   2.106       .  S
Cu338       N346   2.105       .  S
N339        N340   1.323       .  A
N339        C343   1.345       .  A
N340        C341   1.351       .  A
C341        C342   1.394       .  A
C341        H344   1.080       .  S
C342        C343   1.388       .  A
C342        C452   1.498       .  S
C343        H345   1.083       .  S
N346        N347   1.323       .  A
N346        C350   1.351       .  A
N347        C348   1.344       .  A
C348        C349   1.384       .  A
C348        H351   1.081       .  S
C349        C350   1.392       .  A
C349        C705   1.491       .  S
C350        H352   1.081       .  S
N353        N354   1.323       .  A
N353        C357   1.346       .  A
N353       Cu361   2.084       .  S
N354        C355   1.345       .  A
N354       Cu360   2.083       .  S
C355        C356   1.387       .  A
C355        H358   1.083       .  S
C356        C357   1.387       .  A
C356        C512   1.486       .  S
C357        H359   1.082       .  S
Cu360       N363   2.083       .  S
Cu361       N371   2.084       .  S
Cu362       N364   2.082       .  S
Cu362       N370   2.083       .  S
N363        N364   1.322       .  A
N363        C367   1.348       .  A
N364        C365   1.345       .  A
C365        C366   1.386       .  A
C365        H368   1.081       .  S
C366        C367   1.387       .  A
C366        C432   1.485       .  S
C367        H369   1.081       .  S
N370        N371   1.322       .  A
N370        C374   1.346       .  A
N371        C372   1.347       .  A
C372        C373   1.389       .  A
C372        H375   1.081       .  S
C373        C374   1.388       .  A
C373        C692   1.490       .  S
C374        H376   1.081       .  S
C377        C378   1.396       .  A
C377        C382   1.412       .  A
C377        C592   1.481       .  S
C378        C379   1.397       .  A
C378        H397   1.086       .  S
C379        C380   1.414       .  A
C379        C545   1.480       .  S
C380        C381   1.421       .  A
C380        C387   1.406       .  A
C381        C382   1.422       .  A
C381        C386   1.419   1_544  A
C382        C383   1.405       .  A
C383        C384   1.394   1_544  A
C383        H393   1.082       .  S
C384        C385   1.405       .  A
C384        H394   1.083       .  S
C385        C386   1.422       .  A
C385        C392   1.412       .  A
C386        C389   1.422       .  A
C387        C388   1.395   1_544  A
C387        H395   1.083       .  S
C388        C389   1.405       .  A
C388        H396   1.083       .  S
C389        C390   1.413       .  A
C390        C391   1.396       .  A
C390        C472   1.479       .  S
C391        C392   1.393       .  A
C391        H398   1.086       .  S
C392        C425   1.480       .  S
C399        C400   1.395       .  A
C399        C404   1.417       .  A
C399        C652   1.486       .  S
C400        C401   1.396       .  A
C400        H419   1.086       .  S
C401        C402   1.411       .  A
C401        C612   1.471       .  S
C402        C403   1.416       .  A
C402        C409   1.409       .  A
C403        C404   1.426       .  A
C403        C408   1.420       .  A
C404        C405   1.403       .  A
C405        C406   1.394       .  A
C405        H415   1.083       .  S
C406        C407   1.408   1_554  A
C406        H416   1.083       .  S
C407        C408   1.417   1_556  A
C407        C414   1.409       .  A
C408        C411   1.427   1_554  A
C409        C410   1.396       .  A
C409        H417   1.082       .  S
C410        C411   1.403   1_554  A
C410        H418   1.083       .  S
C411        C412   1.419       .  A
C412        C413   1.394       .  A
C412        C445   1.489       .  S
C413        C414   1.394       .  A
C413        H420   1.086       .  S
C414        C485   1.470       .  S
C421        C422   1.409       .  A
C421        C426   1.401       .  A
C421        F439   1.357       .  S
C422        C423   1.408       .  A
C422        C427   1.488       .  S
C423        C424   1.398       .  A
C423        F428   1.358       .  S
C424        C425   1.404       .  A
C424        F440   1.358       .  S
C425        C426   1.403       .  A
C426        F429   1.357   1_556  S
C427        C430   1.407       .  A
C427        C434   1.407       .  A
C430        C431   1.403       .  A
C430        F435   1.358       .  S
C431        C432   1.409       .  A
C431        F437   1.357       .  S
C432        C433   1.407       .  A
C433        C434   1.399       .  A
C433        F436   1.358       .  S
C434        F438   1.358       .  S
C441        C442   1.409       .  A
C441        C446   1.402       .  A
C441        F459   1.358       .  S
C442        C443   1.410       .  A
C442        C447   1.497       .  S
C443        C444   1.405       .  A
C443        F448   1.357       .  S
C444        C445   1.405       .  A
C444        F460   1.357       .  S
C445        C446   1.406       .  A
C446        F449   1.358   1_556  S
C447        C450   1.409       .  A
C447        C454   1.407       .  A
C450        C451   1.404       .  A
C450        F455   1.358       .  S
C451        C452   1.410       .  A
C451        F457   1.357       .  S
C452        C453   1.413       .  A
C453        C454   1.404       .  A
C453        F456   1.357       .  S
C454        F458   1.358       .  S
C461        C462   1.409       .  A
C461        C466   1.399       .  A
C461        F479   1.358       .  S
C462        C463   1.407       .  A
C462        C467   1.487       .  S
C463        C464   1.398       .  A
C463        F468   1.357       .  S
C464        C465   1.406       .  A
C464        F480   1.357       .  S
C465        C466   1.406       .  A
C466        F469   1.358       .  S
C467        C470   1.410       .  A
C467        C474   1.408       .  A
C470        C471   1.401       .  A
C470        F475   1.358       .  S
C471        C472   1.403       .  A
C471        F477   1.358   1_556  S
C472        C473   1.403       .  A
C473        C474   1.396       .  A
C473        F476   1.358       .  S
C474        F478   1.358       .  S
C481        C482   1.407       .  A
C481        C486   1.393       .  A
C481        F499   1.358       .  S
C482        C483   1.407       .  A
C482        C487   1.477       .  S
C483        C484   1.397       .  A
C483        F488   1.358       .  S
C484        C485   1.403       .  A
C484        F500   1.358       .  S
C485        C486   1.401       .  A
C486        F489   1.358   1_556  S
C487        C490   1.403       .  A
C487        C494   1.405       .  A
C490        C491   1.396       .  A
C490        F495   1.358       .  S
C491        C492   1.409       .  A
C491        F497   1.357       .  S
C492        C493   1.409       .  A
C493        C494   1.396       .  A
C493        F496   1.357       .  S
C494        F498   1.358       .  S
C501        C502   1.408       .  A
C501        C506   1.397       .  A
C501        F519   1.358       .  S
C502        C503   1.410       .  A
C502        C507   1.490       .  S
C503        C504   1.401       .  A
C503        F508   1.358       .  S
C504        C505   1.406       .  A
C504        F520   1.358       .  S
C505        C506   1.406       .  A
C506        F509   1.359       .  S
C507        C510   1.408       .  A
C507        C514   1.408       .  A
C510        C511   1.401       .  A
C510        F515   1.358       .  S
C511        C512   1.408       .  A
C511        F517   1.358       .  S
C512        C513   1.408       .  A
C513        C514   1.398       .  A
C513        F516   1.357       .  S
C514        F518   1.358       .  S
C521        C522   1.406       .  A
C521        C526   1.397       .  A
C521        F539   1.358       .  S
C522        C523   1.409       .  A
C522        C527   1.486       .  S
C523        C524   1.403       .  A
C523        F528   1.358       .  S
C524        C525   1.405       .  A
C524        F540   1.358       .  S
C525        C526   1.405       .  A
C526        F529   1.358       .  S
C527        C530   1.405       .  A
C527        C534   1.406       .  A
C530        C531   1.401       .  A
C530        F535   1.358       .  S
C531        C532   1.410       .  A
C531        F537   1.357       .  S
C532        C533   1.411       .  A
C533        C534   1.400       .  A
C533        F536   1.357       .  S
C534        F538   1.358       .  S
C541        C542   1.406       .  A
C541        C546   1.401       .  A
C541        F559   1.358       .  S
C542        C543   1.403       .  A
C542        C547   1.477       .  S
C543        C544   1.396       .  A
C543        F548   1.358       .  S
C544        C545   1.405       .  A
C544        F560   1.358       .  S
C545        C546   1.405       .  A
C546        F549   1.358       .  S
C547        C550   1.403       .  A
C547        C554   1.403       .  A
C550        C551   1.400       .  A
C550        F555   1.358       .  S
C551        C552   1.410       .  A
C551        F557   1.357       .  S
C552        C553   1.409       .  A
C553        C554   1.397       .  A
C553        F556   1.358       .  S
C554        F558   1.358       .  S
C561        C562   1.404       .  A
C561        C566   1.401       .  A
C561        F579   1.358       .  S
C562        C563   1.406       .  A
C562        C567   1.485       .  S
C563        C564   1.400       .  A
C563        F568   1.358       .  S
C564        C565   1.409       .  A
C564        F580   1.357       .  S
C565        C566   1.410       .  A
C566        F569   1.357       .  S
C567        C570   1.406       .  A
C567        C574   1.408       .  A
C570        C571   1.399       .  A
C570        F575   1.358       .  S
C571        C572   1.407       .  A
C571        F577   1.358       .  S
C572        C573   1.405       .  A
C573        C574   1.402       .  A
C573        F576   1.357       .  S
C574        F578   1.358       .  S
C581        C582   1.405       .  A
C581        C586   1.402       .  A
C581        F599   1.358       .  S
C582        C583   1.405       .  A
C582        C587   1.484       .  S
C583        C584   1.396       .  A
C583        F588   1.358       .  S
C584        C585   1.408       .  A
C584        F600   1.357       .  S
C585        C586   1.411       .  A
C586        F589   1.357       .  S
C587        C590   1.406       .  A
C587        C594   1.408       .  A
C590        C591   1.398       .  A
C590        F595   1.358       .  S
C591        C592   1.405       .  A
C591        F597   1.358       .  S
C592        C593   1.403       .  A
C593        C594   1.400       .  A
C593        F596   1.358       .  S
C594        F598   1.358       .  S
C601        C602   1.406       .  A
C601        C606   1.398       .  A
C601        F619   1.358       .  S
C602        C603   1.408       .  A
C602        C607   1.479       .  S
C603        C604   1.396       .  A
C603        F608   1.358       .  S
C604        C605   1.402       .  A
C604        F620   1.358       .  S
C605        C606   1.403       .  A
C606        F609   1.358       .  S
C607        C610   1.408       .  A
C607        C614   1.407       .  A
C610        C611   1.397       .  A
C610        F615   1.358       .  S
C611        C612   1.402       .  A
C611        F617   1.358       .  S
C612        C613   1.401       .  A
C613        C614   1.396       .  A
C613        F616   1.358       .  S
C614        F618   1.358       .  S
C621        C622   1.404       .  A
C621        C626   1.404       .  A
C621        F639   1.358       .  S
C622        C623   1.405       .  A
C622        C627   1.481       .  S
C623        C624   1.400       .  A
C623        F628   1.358       .  S
C624        C625   1.406       .  A
C624        F640   1.358       .  S
C625        C626   1.408       .  A
C626        F629   1.357       .  S
C627        C630   1.406       .  A
C627        C634   1.406       .  A
C630        C631   1.400       .  A
C630        F635   1.357       .  S
C631        C632   1.403       .  A
C631        F637   1.358       .  S
C632        C633   1.404       .  A
C633        C634   1.401       .  A
C633        F636   1.358   1_554  S
C634        F638   1.357       .  S
C641        C642   1.407       .  A
C641        C646   1.399       .  A
C641        F659   1.358       .  S
C642        C643   1.408       .  A
C642        C647   1.492       .  S
C643        C644   1.404       .  A
C643        F648   1.357       .  S
C644        C645   1.408       .  A
C644        F660   1.357       .  S
C645        C646   1.410       .  A
C646        F649   1.358       .  S
C647        C650   1.409       .  A
C647        C654   1.408       .  A
C650        C651   1.403       .  A
C650        F655   1.358       .  S
C651        C652   1.405       .  A
C651        F657   1.358       .  S
C652        C653   1.405       .  A
C653        C654   1.402       .  A
C653        F656   1.357       .  S
C654        F658   1.358       .  S
C661        C662   1.403       .  A
C661        C666   1.397       .  A
C661        F679   1.358       .  S
C662        C663   1.404       .  A
C662        C667   1.480       .  S
C663        C664   1.402       .  A
C663        F668   1.358       .  S
C664        C665   1.411       .  A
C664        F680   1.357       .  S
C665        C666   1.409       .  A
C666        F669   1.357       .  S
C667        C670   1.405       .  A
C667        C674   1.407       .  A
C670        C671   1.398       .  A
C670        F675   1.358       .  S
C671        C672   1.404       .  A
C671        F677   1.358       .  S
C672        C673   1.403       .  A
C673        C674   1.399       .  A
C673        F676   1.358       .  S
C674        F678   1.358       .  S
C681        C682   1.407       .  A
C681        C686   1.403       .  A
C681        F699   1.358       .  S
C682        C683   1.407       .  A
C682        C687   1.494       .  S
C683        C684   1.402       .  A
C683        F688   1.358       .  S
C684        C685   1.411       .  A
C684        F700   1.357       .  S
C685        C686   1.412       .  A
C686        F689   1.357       .  S
C687        C690   1.407       .  A
C687        C694   1.408       .  A
C690        C691   1.402       .  A
C690        F695   1.358       .  S
C691        C692   1.409       .  A
C691        F697   1.357       .  S
C692        C693   1.408       .  A
C693        C694   1.403       .  A
C693        F696   1.358       .  S
C694        F698   1.358       .  S
C701        C702   1.403       .  A
C701        C706   1.401       .  A
C701        F719   1.358       .  S
C702        C703   1.406       .  A
C702        C707   1.486       .  S
C703        C704   1.404       .  A
C703        F708   1.358       .  S
C704        C705   1.409       .  A
C704        F720   1.357       .  S
C705        C706   1.411       .  A
C706        F709   1.357       .  S
C707        C710   1.404       .  A
C707        C714   1.404       .  A
C710        C711   1.403       .  A
C710        F715   1.358       .  S
C711        C712   1.411       .  A
C711        F717   1.357       .  S
C712        C713   1.411       .  A
C713        C714   1.403       .  A
C713        F716   1.357       .  S
C714        F718   1.358       .  S
C721        C722   1.406       .  A
C721        C726   1.401       .  A
C721        F739   1.358       .  S
C722        C723   1.407       .  A
C722        C727   1.483       .  S
C723        C724   1.398       .  A
C723        F728   1.358       .  S
C724        C725   1.405       .  A
C724        F740   1.358       .  S
C725        C726   1.406       .  A
C726        F729   1.358       .  S
C727        C730   1.407       .  A
C727        C734   1.406       .  A
C730        C731   1.401       .  A
C730        F735   1.358       .  S
C731        C732   1.406       .  A
C731        F737   1.358       .  S
C732        C733   1.405       .  A
C733        C734   1.397       .  A
C733        F736   1.358       .  S
C734        F738   1.358       .  S
C741        C742   1.408       .  A
C741        C746   1.404       .  A
C741        F759   1.358       .  S
C742        C743   1.407       .  A
C742        C747   1.492       .  S
C743        C744   1.403       .  A
C743        F748   1.357       .  S
C744        C745   1.405       .  A
C744        F760   1.357       .  S
C745        C746   1.410       .  A
C746        F749   1.358       .  S
C747        C750   1.409       .  A
C747        C754   1.408       .  A
C750        C751   1.405       .  A
C750        F755   1.358       .  S
C751        C752   1.406       .  A
C751        F757   1.358       .  S
C752        C753   1.403       .  A
C753        C754   1.401       .  A
C753        F756   1.357       .  S
C754        F758   1.358       .  S
C761        C762   1.408       .  A
C761        C766   1.408       .  A
C761        F779   1.357       .  S
C762        C763   1.407       .  A
C762        C767   1.491       .  S
C763        C764   1.401       .  A
C763        F768   1.358       .  S
C764        C765   1.406       .  A
C764        F780   1.358       .  S
C765        C766   1.407       .  A
C766        F769   1.357       .  S
C767        C770   1.408       .  A
C767        C774   1.406       .  A
C770        C771   1.407       .  A
C770        F775   1.358       .  S
C771        C772   1.407       .  A
C771        F777   1.358       .  S
C772        C773   1.405       .  A
C773        C774   1.402       .  A
C773        F776   1.358       .  S
C774        F778   1.357       .  S
C781        C782   1.403       .  A
C781        C786   1.400       .  A
C781        F799   1.358       .  S
C782        C783   1.401       .  A
C782        C787   1.476       .  S
C783        C784   1.396       .  A
C783        F788   1.358       .  S
C784        C785   1.410       .  A
C784        F800   1.357       .  S
C785        C786   1.411       .  A
C786        F789   1.357       .  S
C787        C790   1.405       .  A
C787        C794   1.403       .  A
C790        C791   1.398       .  A
C790        F795   1.358       .  S
C791        C792   1.405       .  A
C791        F797   1.358       .  S
C792        C793   1.408       .  A
C793        C794   1.398       .  A
C793        F796   1.358       .  S
C794        F798   1.358       .  S
C801        C802   1.405       .  A
C801        C806   1.399       .  A
C801        F819   1.358       .  S
C802        C803   1.408       .  A
C802        C807   1.482       .  S
C803        C804   1.400       .  A
C803        F808   1.358       .  S
C804        C805   1.403       .  A
C804        F820   1.358       .  S
C805        C806   1.404       .  A
C806        F809   1.358       .  S
C807        C810   1.404       .  A
C807        C814   1.405       .  A
C810        C811   1.396       .  A
C810        F815   1.358       .  S
C811        C812   1.407       .  A
C811        F817   1.357       .  S
C812        C813   1.411       .  A
C813        C814   1.404       .  A
C813        F816   1.357       .  S
C814        F818   1.358       .  S
C821        C822   1.405       .  A
C821        C826   1.403       .  A
C821        F839   1.357       .  S
C822        C823   1.407       .  A
C822        C827   1.489       .  S
C823        C824   1.402       .  A
C823        F828   1.358       .  S
C824        C825   1.408       .  A
C824        F840   1.358       .  S
C825        C826   1.409       .  A
C826        F829   1.358       .  S
C827        C830   1.407       .  A
C827        C834   1.407       .  A
C830        C831   1.403       .  A
C830        F835   1.358       .  S
C831        C832   1.406       .  A
C831        F837   1.358       .  S
C832        C833   1.406       .  A
C833        C834   1.403       .  A
C833        F836   1.357       .  S
C834        F838   1.358       .  S
C841        C842   1.408       .  A
C841        C846   1.402       .  A
C841        F859   1.358       .  S
C842        C843   1.406       .  A
C842        C847   1.488       .  S
C843        C844   1.399       .  A
C843        F848   1.358       .  S
C844        C845   1.406       .  A
C844        F860   1.358       .  S
C845        C846   1.408       .  A
C846        F849   1.358       .  S
C847        C850   1.408       .  A
C847        C854   1.405       .  A
C850        C851   1.404       .  A
C850        F855   1.358       .  S
C851        C852   1.409       .  A
C851        F857   1.357       .  S
C852        C853   1.409       .  A
C853        C854   1.398       .  A
C853        F856   1.358       .  S
C854        F858   1.358       .  S
C861        C862   1.406       .  A
C861        C866   1.402       .  A
C861        F879   1.358       .  S
C862        C863   1.405       .  A
C862        C867   1.485       .  S
C863        C864   1.396       .  A
C863        F868   1.358       .  S
C864        C865   1.409       .  A
C864        F880   1.357       .  S
C865        C866   1.409       .  A
C866        F869   1.357       .  S
C867        C870   1.408       .  A
C867        C874   1.408       .  A
C870        C871   1.400       .  A
C870        F875   1.358       .  S
C871        C872   1.402       .  A
C871        F877   1.357       .  S
C872        C873   1.403       .  A
C873        C874   1.398       .  A
C873        F876   1.358       .  S
C874        F878   1.358       .  S
C881        C882   1.402       .  A
C881        C886   1.399       .  A
C881        F899   1.358       .  S
C882        C883   1.403       .  A
C882        C887   1.477       .  S
C883        C884   1.400       .  A
C883        F888   1.358       .  S
C884        C885   1.410       .  A
C884        F900   1.357       .  S
C885        C886   1.410       .  A
C886        F889   1.357       .  S
C887        C890   1.403       .  A
C887        C894   1.403       .  A
C890        C891   1.400       .  A
C890        F895   1.358       .  S
C891        C892   1.409       .  A
C891        F897   1.357       .  S
C892        C893   1.408       .  A
C893        C894   1.399       .  A
C893        F896   1.357       .  S
C894        F898   1.358       .  S
C901        C902   1.408       .  A
C901        C906   1.402       .  A
C901        F919   1.358       .  S
C902        C903   1.408       .  A
C902        C907   1.492       .  S
C903        C904   1.400       .  A
C903        F908   1.358       .  S
C904        C905   1.410       .  A
C904        F920   1.358       .  S
C905        C906   1.408       .  A
C906        F909   1.357       .  S
C907        C910   1.409       .  A
C907        C914   1.411       .  A
C910        C911   1.398       .  A
C910        F915   1.357       .  S
C911        C912   1.401       .  A
C911        F917   1.358       .  S
C912        C913   1.405       .  A
C913        C914   1.403       .  A
C913        F916   1.358       .  S
C914        F918   1.358       .  S
C921        C922   1.405       .  A
C921        C926   1.401       .  A
C921        F939   1.358       .  S
C922        C923   1.407       .  A
C922        C927   1.484       .  S
C923        C924   1.400       .  A
C923        F928   1.358       .  S
C924        C925   1.404       .  A
C924        F940   1.357       .  S
C925        C926   1.408       .  A
C926        F929   1.358       .  S
C927        C930   1.406       .  A
C927        C934   1.405       .  A
C930        C931   1.405       .  A
C930        F935   1.358       .  S
C931        C932   1.409       .  A
C931        F937   1.358       .  S
C932        C933   1.405       .  A
C933        C934   1.397       .  A
C933        F936   1.357       .  S
C934        F938   1.358       .  S
C941        C942   1.404       .  A
C941        C946   1.396       .  A
C941        F959   1.358       .  S
C942        C943   1.406       .  A
C942        C947   1.480       .  S
C943        C944   1.401       .  A
C943        F948   1.358       .  S
C944        C945   1.408       .  A
C944        F960   1.358       .  S
C945        C946   1.407       .  A
C946        F949   1.357       .  S
C947        C950   1.405       .  A
C947        C954   1.403       .  A
C950        C951   1.399       .  A
C950        F955   1.358       .  S
C951        C952   1.408       .  A
C951        F957   1.357       .  S
C952        C953   1.410       .  A
C953        C954   1.398       .  A
C953        F956   1.357       .  S
C954        F958   1.358       .  S
C961        C962   1.408       .  A
C961        C966   1.402       .  A
C961        F979   1.358       .  S
C962        C963   1.408       .  A
C962        C967   1.489       .  S
C963        C964   1.399       .  A
C963        F968   1.358       .  S
C964        C965   1.406       .  A
C964        F980   1.358       .  S
C965        C966   1.406       .  A
C966        F969   1.358       .  S
C967        C970   1.406       .  A
C967        C974   1.409       .  A
C970        C971   1.398       .  A
C970        F975   1.358       .  S
C971        C972   1.406       .  A
C971        F977   1.358       .  S
C972        C973   1.406       .  A
C973        C974   1.404       .  A
C973        F976   1.357       .  S
C974        F978   1.358       .  S
C981        C982   1.406       .  A
C981        C986   1.400       .  A
C981        F999   1.358       .  S
C982        C983   1.406       .  A
C982        C987   1.482       .  S
C983        C984   1.402       .  A
C983        F988   1.358       .  S
C984        C985   1.406       .  A
C984       F1000   1.358       .  S
C985        C986   1.404       .  A
C986        F989   1.357       .  S
C987        C990   1.404       .  A
C987        C994   1.403       .  A
C990        C991   1.398       .  A
C990        F995   1.358       .  S
C991        C992   1.411       .  A
C991        F997   1.357       .  S
C992        C993   1.411       .  A
C993        C994   1.402       .  A
C993        F996   1.357       .  S
C994        F998   1.357       .  S
C1001      C1002   1.406       .  A
C1001      C1006   1.403       .  A
C1001      F1019   1.358       .  S
C1002      C1003   1.404       .  A
C1002      C1007   1.482       .  S
C1003      C1004   1.398       .  A
C1003      F1008   1.357       .  S
C1004      C1005   1.406       .  A
C1004      F1020   1.357       .  S
C1005      C1006   1.408       .  A
C1006      F1009   1.358       .  S
C1007      C1010   1.404       .  A
C1007      C1014   1.406       .  A
C1010      C1011   1.401       .  A
C1010      F1015   1.358       .  S
C1011      C1012   1.407       .  A
C1011      F1017   1.357       .  S
C1012      C1013   1.407       .  A
C1013      C1014   1.402       .  A
C1013      F1016   1.358       .  S
C1014      F1018   1.358       .  S
