geometry optimzed in LAMMPS
_audit_creation_date              2020-12-01 
_audit_creation_method            'lammps2cif' 
_symmetry_space_group_name_H-M    'P1' 
_symmetry_Int_Tables_number       1 
_symmetry_cell_setting            triclinic 
loop_ 
_symmetry_equiv_pos_as_xyz 
  x,y,z 
_cell_length_a                    48.56240575 
_cell_length_b                    48.74790940572843 
_cell_length_c                    48.735402639859 
_cell_angle_alpha                 90.10698450437646 
_cell_angle_beta                  89.7557292956844 
_cell_angle_gamma                 90.08228026090683 
loop_ 
_atom_site_label 
_atom_site_type_symbol 
_atom_site_fract_x 
_atom_site_fract_y 
_atom_site_fract_z 
_atom_site_charge 
Fe1        Fe  0.18843407  0.57744330  0.51915586     1.65800
Fe2        Fe  0.12483707  0.57887974  0.54482511     1.73200
Fe3        Fe  0.17267622  0.62039469  0.57178847     1.54400
O4          O  0.20186146  0.59381802  0.58717801    -0.82000
O5          O  0.10863017  0.61645359  0.55751729    -0.80300
O6          O  0.21936547  0.57603941  0.54854409    -0.84500
O7          O  0.19984659  0.61564055  0.50632623    -0.79300
O8          O  0.14414142  0.60583282  0.60153545    -0.81100
O9          O  0.11898583  0.59091703  0.50535466    -0.83800
C10         C  0.21031568  0.63456598  0.52063011     0.96900
C11         C  0.21953915  0.57912928  0.57455593     1.04400
O12         O  0.16204852  0.59269003  0.54472848    -1.12800
O13         O  0.13428988  0.53943062  0.53107884    -0.75200
O14         O  0.17971425  0.53726602  0.52852352    -0.78700
O15         O  0.20350686  0.63821037  0.54581681    -0.79400
C16         C  0.15629635  0.52605247  0.52675044     0.95800
O17         O  0.15945474  0.57682780  0.48803635    -0.77400
O18         O  0.13074549  0.56601385  0.58394319    -0.82600
C19         C  0.11654679  0.64141645  0.55807828     0.98500
C20         C  0.13157354  0.58286563  0.60360450     1.04400
O21         O  0.14217692  0.64767518  0.55820563    -0.78200
C22         C  0.13446165  0.58434661  0.48544326     1.02700
Fe23       Fe  0.16469164  0.54406079  0.24476124     1.65800
Fe24       Fe  0.15548844  0.61137731  0.24087289     1.73200
Fe25       Fe  0.13255849  0.57122703  0.18884134     1.54400
O26         O  0.16332749  0.54566861  0.17386042    -0.82000
O27         O  0.12150698  0.62897731  0.22251837    -0.80300
O28         O  0.17910188  0.52397325  0.21066596    -0.84500
O29         O  0.12833539  0.52415708  0.24241652    -0.79300
O30         O  0.15548910  0.60503596  0.17285125    -0.81100
O31         O  0.13145363  0.60079025  0.27333568    -0.83800
C32         C  0.11075840  0.52081391  0.22368342     0.96900
C33         C  0.17837381  0.52753367  0.18495260     1.04400
O34         O  0.15041267  0.57528447  0.22458745    -1.12800
O35         O  0.19080572  0.60147547  0.26316853    -0.75200
O36         O  0.20333341  0.56064557  0.24825625    -0.78700
O37         O  0.10949872  0.53610053  0.20220623    -0.79400
C38         C  0.20854217  0.58250644  0.26101587     0.95800
O39         O  0.15115246  0.56032809  0.28185518    -0.77400
O40         O  0.17939567  0.62196276  0.20847148    -0.82600
C41         C  0.10059457  0.62127452  0.20905600     0.98500
C42         C  0.17461989  0.62028785  0.18291819     1.04400
O43         O  0.09933693  0.59726313  0.19869000    -0.78200
C44         C  0.13579584  0.58040984  0.28879878     1.02700
Fe45       Fe  0.24482795  0.14039528  0.57351759     1.65800
Fe46       Fe  0.22426177  0.14459380  0.63944998     1.73200
Fe47       Fe  0.18908647  0.10435673  0.59584841     1.54400
O48         O  0.17345186  0.13227046  0.56811958    -0.82000
O49         O  0.21211984  0.10755225  0.65753205    -0.80300
O50         O  0.21197502  0.14711078  0.54710955    -0.84500
O51         O  0.25035880  0.10105606  0.55997468    -0.79300
O52         O  0.16375022  0.12105701  0.62715148    -0.81100
O53         O  0.26382213  0.13148997  0.64201342    -0.83800
C54         C  0.23236258  0.08441119  0.55166146     0.96900
C55         C  0.18575005  0.14586613  0.54932269     1.04400
O56         O  0.21995275  0.12949791  0.60284361    -1.12800
O57         O  0.23752696  0.18330265  0.62758256    -0.75200
O58         O  0.24433064  0.18175627  0.58260377    -0.78700
O59         O  0.20832977  0.08362426  0.56235880    -0.79400
C60         C  0.24394345  0.19472819  0.60510984     0.95800
O61         O  0.27854802  0.13437591  0.59833911    -0.77400
O62         O  0.18535562  0.15946162  0.63792129    -0.82600
C63         C  0.20812709  0.08271507  0.65004913     0.98500
C64         C  0.16446216  0.14423206  0.63925245     1.04400
O65         O  0.20389545  0.07640923  0.62486564    -0.78200
C66         C  0.28245357  0.13018257  0.62382532     1.02700
Fe67       Fe  0.52033974  0.17435984  0.59693127     1.65800
Fe68       Fe  0.53501525  0.10787910  0.60625689     1.73200
Fe69       Fe  0.57806494  0.15682654  0.63177639     1.54400
O70         O  0.58621414  0.18834797  0.60354134    -0.82000
O71         O  0.54052380  0.09838452  0.64659230    -0.80300
O72         O  0.55178440  0.18936928  0.57312758    -0.84500
O73         O  0.52936241  0.20285296  0.62621994    -0.79300
O74         O  0.60226737  0.13124848  0.60673416    -0.81100
O75         O  0.49457680  0.11512994  0.61515736    -0.83800
C76         C  0.54103174  0.20385067  0.64927249     0.96900
C77         C  0.57564093  0.19669095  0.58101898     1.04400
O78         O  0.54462011  0.14626162  0.61194018    -1.12800
O79         O  0.52871967  0.11255686  0.56475542    -0.75200
O80         O  0.50608342  0.15175394  0.56393884    -0.78700
O81         O  0.55693256  0.18476450  0.65756871    -0.79400
C82         C  0.51319434  0.12944914  0.55271469     0.95800
O83         O  0.48839625  0.16021404  0.62087497    -0.77400
O84         O  0.57406036  0.09648480  0.59660265    -0.82600
C85         C  0.55773615  0.10503478  0.66488077     0.98500
C86         C  0.59712370  0.10838549  0.59507833     1.04400
O87         O  0.57372582  0.12577931  0.66209944    -0.78200
C88         C  0.48018914  0.13550916  0.62270701     1.02700
Fe89       Fe  0.59983300  0.51034248  0.18804619     1.65800
Fe90       Fe  0.61064413  0.51936401  0.12126390     1.73200
Fe91       Fe  0.63854252  0.56438954  0.16620225     1.54400
O92         O  0.60851488  0.58089364  0.19177210    -0.82000
O93         O  0.64795526  0.53347547  0.10644316    -0.80300
O94         O  0.59223448  0.54367932  0.21251269    -0.84500
O95         O  0.63692714  0.50455605  0.20637193    -0.79300
O96         O  0.61969065  0.58610359  0.13281609    -0.81100
O97         O  0.62913040  0.48296972  0.12961039    -0.83800
C98         C  0.65509425  0.52186422  0.21323904     0.96900
C99         C  0.59436740  0.56948865  0.21054466     1.04400
O100        O  0.61658552  0.53166074  0.15866082    -1.12800
O101        O  0.57164185  0.50272571  0.12922443    -0.75200
O102        O  0.56098094  0.51431410  0.17199205    -0.78700
O103        O  0.65787695  0.54526012  0.20113533    -0.79400
C104        C  0.55438891  0.50463009  0.14883418     0.95800
O105        O  0.60495285  0.47380738  0.16741623    -0.77400
O106        O  0.59229439  0.55531455  0.11213102    -0.82600
C107        C  0.67008769  0.54323867  0.11614439     0.98500
C108        C  0.60029500  0.57975227  0.11596860     1.04400
O109        O  0.67132870  0.55206955  0.14075340    -0.78200
C110        C  0.61861717  0.46634386  0.14647263     1.02700
Fe111      Fe  0.56768318  0.22678130  0.16515860     1.65800
Fe112      Fe  0.63529025  0.21844418  0.15309663     1.73200
Fe113      Fe  0.59044886  0.16983823  0.13040952     1.54400
O114        O  0.56326107  0.15672607  0.16065696    -0.82000
O115        O  0.65021172  0.20086224  0.11782826    -0.80300
O116        O  0.54878584  0.19382678  0.18314657    -0.84500
O117        O  0.54406374  0.22291001  0.13095736    -0.79300
O118        O  0.62203026  0.15062674  0.15324666    -0.81100
O119        O  0.62612231  0.25251586  0.13129201    -0.83800
C120        C  0.54173083  0.20672192  0.11080486     0.96900
C121        C  0.54903917  0.16811055  0.17944017     1.04400
O122        O  0.59754492  0.20494050  0.14927193    -1.12800
O123        O  0.62971218  0.23988193  0.18938522    -0.75200
O124        O  0.58658015  0.23338510  0.20227158    -0.78700
O125        O  0.55766486  0.18615725  0.10697250    -0.79400
C126        C  0.61061297  0.24191695  0.20690352     0.95800
O127        O  0.58428520  0.26206858  0.14846215    -0.77400
O128        O  0.64439464  0.18462756  0.17509825    -0.82600
C129        C  0.64109085  0.18805973  0.09724568     0.98500
C130        C  0.63877732  0.15944184  0.17156858     1.04400
O131        O  0.61704192  0.17773654  0.09728940    -0.78200
C132        C  0.60584156  0.26848182  0.13485925     1.02700
Fe133      Fe  0.68787014  0.90393787  0.48687520     1.65800
Fe134      Fe  0.62448962  0.90685805  0.46045342     1.73200
Fe135      Fe  0.67114435  0.86511288  0.43196126     1.54400
O136        O  0.70062790  0.89223351  0.41773585    -0.82000
O137        O  0.60738830  0.86963221  0.44756532    -0.80300
O138        O  0.71940402  0.90520628  0.45759870    -0.84500
O139        O  0.69666566  0.86427727  0.49758503    -0.79300
O140        O  0.64192177  0.88037717  0.40335368    -0.81100
O141        O  0.61741547  0.89457119  0.49975321    -0.83800
C142        C  0.70827673  0.84722178  0.48181807     0.96900
C143        C  0.71938741  0.90448206  0.43138315     1.04400
O144        O  0.66113237  0.89168870  0.46029347    -1.12800
O145        O  0.63598599  0.94542262  0.47486903    -0.75200
O146        O  0.68143367  0.94488571  0.47968138    -0.78700
O147        O  0.70224563  0.84601147  0.45629171    -0.79400
C148        C  0.65852965  0.95718413  0.48089559     0.95800
O149        O  0.65848762  0.90501829  0.51781162    -0.77400
O150        O  0.63074593  0.92040782  0.42133391    -0.82600
C151        C  0.61498143  0.84455063  0.44633348     0.98500
C152        C  0.62918438  0.90324866  0.40205400     1.04400
O153        O  0.64049938  0.83792528  0.44538456    -0.78200
C154        C  0.63283666  0.89982783  0.51994806     1.02700
Fe155      Fe  0.66240175  0.93428720  0.76157848     1.65800
Fe156      Fe  0.65298460  0.86667219  0.76089337     1.73200
Fe157      Fe  0.63018143  0.90341465  0.81581633     1.54400
O158        O  0.66074431  0.92872127  0.83225169    -0.82000
O159        O  0.61909281  0.84801593  0.77801843    -0.80300
O160        O  0.67768217  0.95143251  0.79649645    -0.84500
O161        O  0.62642434  0.95438601  0.76636545    -0.79300
O162        O  0.65347362  0.86924712  0.82949479    -0.81100
O163        O  0.62902722  0.87984642  0.72926445    -0.83800
C164        C  0.60782354  0.95533718  0.78452280     0.96900
C165        C  0.67657452  0.94686312  0.82199034     1.04400
O166        O  0.64811160  0.90166488  0.77971298    -1.12800
O167        O  0.68828700  0.87766488  0.73911274    -0.75200
O168        O  0.70063730  0.91779221  0.75602453    -0.78700
O169        O  0.60623429  0.93831874  0.80457717    -0.79400
C170        C  0.70588786  0.89655196  0.74232429     0.95800
O171        O  0.64814517  0.92115112  0.72375234    -0.77400
O172        O  0.67662596  0.85334235  0.79268322    -0.82600
C173        C  0.59847532  0.85443265  0.79258310     0.98500
C174        C  0.67206412  0.85400034  0.81843845     1.04400
O175        O  0.59725742  0.87752497  0.80481817    -0.78200
C176        C  0.63277270  0.90162048  0.71550713     1.02700
Fe177      Fe  0.27541961  0.82943652  0.06658032     1.65800
Fe178      Fe  0.29161083  0.83787317  0.13380773     1.73200
Fe179      Fe  0.33280487  0.86659435  0.08416948     1.54400
O180        O  0.34274455  0.83927530  0.05219942    -0.82000
O181        O  0.29933176  0.87760414  0.14540485    -0.80300
O182        O  0.30734255  0.81050317  0.04645033    -0.84500
O183        O  0.27834671  0.86261301  0.04164853    -0.79300
O184        O  0.35884189  0.84301764  0.10935938    -0.81100
O185        O  0.25124644  0.84832647  0.12933047    -0.83800
C186        C  0.28998600  0.88570784  0.04135187     0.96900
C187        C  0.33179647  0.81813215  0.04113918     1.04400
O188        O  0.30003682  0.84468552  0.09489971    -1.12800
O189        O  0.28244888  0.79679620  0.12874973    -0.75200
O190        O  0.26682014  0.79316513  0.08629622    -0.78700
O191        O  0.30972046  0.89189231  0.05749165    -0.79400
C192        C  0.27083424  0.78326433  0.10985867     0.95800
O193        O  0.24175250  0.84759622  0.08443609    -0.77400
O194        O  0.33079720  0.82629170  0.14181787    -0.82600
C195        C  0.31390919  0.89766194  0.13749419     0.98500
C196        C  0.35423086  0.82844938  0.13065076     1.04400
O197        O  0.32772619  0.89669869  0.11516315    -0.78200
C198        C  0.23511376  0.85184023  0.10929450     1.02700
Fe199      Fe  0.99453031  0.80322183  0.10206951     1.65800
Fe200      Fe  0.98058460  0.86992045  0.10629224     1.73200
Fe201      Fe  0.93963363  0.82513006  0.13953041     1.54400
O202        O  0.92391023  0.79838662  0.11050171    -0.82000
O203        O  0.96433432  0.88684537  0.14194344    -0.80300
O204        O  0.96158457  0.77734593  0.09483297    -0.84500
O205        O  0.00062650  0.78707563  0.13996190    -0.79300
O206        O  0.91632974  0.85703526  0.12056917    -0.81100
O207        O  0.01764590  0.86731461  0.12491878    -0.83800
C208        C  0.98301433  0.77950347  0.15750262     0.96900
C209        C  0.93555424  0.77980082  0.09626170     1.04400
O210        O  0.97175962  0.83253789  0.11654886    -1.12800
O211        O  0.99957649  0.86010800  0.06911425    -0.75200
O212        O  0.99070522  0.81624102  0.06213504    -0.78700
O213        O  0.95928758  0.79109726  0.15979183    -0.79400
C214        C  0.99990280  0.83899565  0.05390316     0.95800
O215        O  0.02996915  0.82627460  0.10803658    -0.77400
O216        O  0.94374964  0.87270906  0.08711369    -0.82600
C217        C  0.95741713  0.87834884  0.16563821     0.98500
C218        C  0.92033167  0.87095230  0.09854553     1.04400
O219        O  0.95229796  0.85298118  0.17002223    -0.78200
C220        C  0.03550278  0.84929355  0.11919492     1.02700
Fe221      Fe  0.40700764  0.99626860  0.31081213     1.65800
Fe222      Fe  0.39837303  0.99818775  0.37822779     1.73200
Fe223      Fe  0.37629406  0.05194417  0.34036696     1.54400
O224        O  0.40784563  0.06694183  0.31543135    -0.82000
O225        O  0.36540011  0.01729492  0.39693924    -0.80300
O226        O  0.42267215  0.03041000  0.29229613    -0.84500
O227        O  0.37096646  0.00071334  0.29103174    -0.79300
O228        O  0.39937304  0.06590584  0.37470314    -0.81100
O229        O  0.37265134  0.96735137  0.36663840    -0.83800
C230        C  0.35392387  0.02003552  0.28846380     0.96900
C231        C  0.42280942  0.05594596  0.29694927     1.04400
O232        O  0.39345078  0.01576048  0.34284980    -1.12800
O233        O  0.43286099  0.97468029  0.36729993    -0.75200
O234        O  0.44551037  0.99067064  0.32697539    -0.78700
O235        O  0.35303278  0.04083972  0.30472776    -0.79400
C236        C  0.45070118  0.97728961  0.34839478     0.95800
O237        O  0.39171807  0.95951964  0.32559768    -0.77400
O238        O  0.42350038  0.02951929  0.38948320    -0.82600
C239        C  0.34426929  0.03073258  0.38996047     0.98500
C240        C  0.41868175  0.05515811  0.38911799     1.04400
O241        O  0.34269967  0.04159200  0.36619054    -0.78200
C242        C  0.37543196  0.95297603  0.34511720     1.02700
Fe243      Fe  0.44039059  0.72796300  0.33966296     1.65800
Fe244      Fe  0.37767452  0.70016535  0.33492493     1.73200
Fe245      Fe  0.42369572  0.67222554  0.37735001     1.54400
O246        O  0.45355515  0.65895294  0.35036787    -0.82000
O247        O  0.35984520  0.68674109  0.37187893    -0.80300
O248        O  0.47216731  0.69933715  0.33864568    -0.84500
O249        O  0.44755954  0.73812759  0.37966545    -0.79300
O250        O  0.39543977  0.64325557  0.36130879    -0.81100
O251        O  0.36988920  0.73921185  0.34743597    -0.83800
C252        C  0.45922957  0.72256184  0.39669059     0.96900
C253        C  0.47203816  0.67315255  0.33830259     1.04400
O254        O  0.41382378  0.70063814  0.35091797    -1.12800
O255        O  0.39015079  0.71489964  0.29655035    -0.75200
O256        O  0.43541588  0.72119174  0.29849466    -0.78700
O257        O  0.45399573  0.69685264  0.39733925    -0.79400
C258        C  0.41297120  0.72150978  0.28544911     0.95800
O259        O  0.41083746  0.75850899  0.33842170    -0.77400
O260        O  0.38468346  0.66119184  0.32123410    -0.82600
C261        C  0.36693304  0.68478725  0.39708601     0.98500
C262        C  0.38332280  0.64175435  0.33818887     1.04400
O263        O  0.39231687  0.68450476  0.40418535    -0.78200
C264        C  0.38509891  0.75988727  0.34331904     1.02700
Fe265      Fe  0.49696152  0.67491380  0.90188788     1.65800
Fe266      Fe  0.48040279  0.60829327  0.90101584     1.73200
Fe267      Fe  0.44016850  0.65309252  0.86755860     1.54400
O268        O  0.42545730  0.67990961  0.89733960    -0.82000
O269        O  0.46503100  0.59147374  0.86474192    -0.80300
O270        O  0.46421544  0.70139928  0.90967472    -0.84500
O271        O  0.50161248  0.68852865  0.86257938    -0.79300
O272        O  0.41698719  0.62086785  0.88555169    -0.81100
O273        O  0.51808009  0.60928276  0.88285431    -0.83800
C274        C  0.48313672  0.69676011  0.84644383     0.96900
C275        C  0.43805938  0.69885185  0.91034585     1.04400
O276        O  0.47266832  0.64557624  0.88998428    -1.12800
O277        O  0.49796890  0.61879381  0.93868982    -0.75200
O278        O  0.49588166  0.66410767  0.94270694    -0.78700
O279        O  0.45873532  0.68682868  0.84678845    -0.79400
C280        C  0.50133830  0.64070264  0.95245017     0.95800
O281        O  0.53181675  0.65105414  0.89621283    -0.77400
O282        O  0.44310124  0.60621825  0.91992363    -0.82600
C283        C  0.45857347  0.60027580  0.84100722     0.98500
C284        C  0.42052111  0.60653054  0.90717757     1.04400
O285        O  0.45298277  0.62557997  0.83692313    -0.78200
C286        C  0.53660672  0.62686464  0.88757473     1.02700
Fe287      Fe  0.77412851  0.64753345  0.94147889     1.65800
Fe288      Fe  0.78805536  0.63805783  0.87421070     1.73200
Fe289      Fe  0.83333247  0.61519316  0.92214986     1.54400
O290        O  0.84073746  0.64256872  0.95432342    -0.82000
O291        O  0.79566347  0.59802021  0.86455537    -0.80300
O292        O  0.80499341  0.67115730  0.95783420    -0.84500
O293        O  0.78315853  0.61661940  0.96827761    -0.79300
O294        O  0.85581231  0.64205002  0.89665115    -0.81100
O295        O  0.74819909  0.62681252  0.88169865    -0.83800
C296        C  0.79604957  0.59412083  0.96814975     0.96900
C297        C  0.82931422  0.66404223  0.96414537     1.04400
O298        O  0.79858849  0.63345392  0.91257120    -1.12800
O299        O  0.77933690  0.67907249  0.87883553    -0.75200
O300        O  0.76027467  0.68154234  0.92008690    -0.78700
O301        O  0.81346582  0.58786822  0.94942983    -0.79400
C302        C  0.76578007  0.69196877  0.89692760     0.95800
O303        O  0.74209265  0.62410804  0.92699287    -0.77400
O304        O  0.82646576  0.64991434  0.86238241    -0.82600
C305        C  0.81427132  0.58105155  0.87081029     0.98500
C306        C  0.84952196  0.65325977  0.87387273     1.04400
O307        O  0.83063942  0.58527953  0.89083043    -0.78200
C308        C  0.73403032  0.62013363  0.90253982     1.02700
Fe309      Fe  0.32359483  0.39471024  0.01288148     1.65800
Fe310      Fe  0.39056605  0.38658611  0.02480130     1.73200
Fe311      Fe  0.34492717  0.36215178  0.07057833     1.54400
O312        O  0.31913374  0.39312143  0.08357708    -0.82000
O313        O  0.40619602  0.35281804  0.04525052    -0.80300
O314        O  0.29970766  0.40873741  0.04528501    -0.84500
O315        O  0.30346713  0.35822105  0.01255635    -0.79300
O316        O  0.37793987  0.38360980  0.09035920    -0.81100
O317        O  0.38450159  0.36241908  0.99183955    -0.83800
C318        C  0.29772813  0.34103214  0.03107541     0.96900
C319        C  0.30160760  0.40798599  0.07129264     1.04400
O320        O  0.35262164  0.38085110  0.03619932    -1.12800
O321        O  0.38309096  0.42126293  0.00080764    -0.75200
O322        O  0.34049861  0.43335034  0.01095817    -0.78700
O323        O  0.31045506  0.34021951  0.05413078    -0.79400
C324        C  0.36357167  0.43846354  0.00015261     0.95800
O325        O  0.34490481  0.38154647  0.97811122    -0.77400
O326        O  0.39630262  0.41081491  0.05800467    -0.82600
C327        C  0.39573298  0.33054583  0.05376998     0.98500
C328        C  0.39306711  0.40403308  0.08290920     1.04400
O329        O  0.37045770  0.32910435  0.06057883    -0.78200
C330        C  0.36669396  0.36752562  0.97375843     1.02700
Fe331      Fe  0.34779905  0.42312032  0.73796248     1.65800
Fe332      Fe  0.35419993  0.35558451  0.72106428     1.73200
Fe333      Fe  0.38205705  0.40440094  0.67865193     1.54400
O334        O  0.35426724  0.43494542  0.66868109    -0.82000
O335        O  0.39261670  0.34234689  0.70887984    -0.80300
O336        O  0.33191059  0.44694152  0.70689751    -0.84500
O337        O  0.38389198  0.44448149  0.73701085    -0.79300
O338        O  0.35807871  0.37741978  0.65408662    -0.81100
O339        O  0.36917589  0.35874808  0.75949259    -0.83800
C340        C  0.40430843  0.44746723  0.72115865     0.96900
C341        C  0.33657227  0.44946386  0.68136892     1.04400
O342        O  0.36150632  0.39447666  0.71257564    -1.12800
O343        O  0.31452034  0.36191297  0.73491144    -0.75200
O344        O  0.30914885  0.40631435  0.74330720    -0.78700
O345        O  0.40734985  0.43357048  0.69903257    -0.79400
C346        C  0.29995285  0.38203801  0.74261775     0.95800
O347        O  0.36236955  0.40248007  0.77172754    -0.77400
O348        O  0.33785805  0.34897027  0.68384771    -0.82600
C349        C  0.41321166  0.35137295  0.69564585     0.98500
C350        C  0.34100123  0.35825875  0.65993060     1.04400
O351        O  0.41290408  0.37478957  0.68409644    -0.78200
C352        C  0.36961092  0.37799571  0.77680425     1.02700
Fe353      Fe  0.06274019  0.24543983  0.85337070     1.65800
Fe354      Fe  0.13065559  0.25041847  0.86171620     1.73200
Fe355      Fe  0.09013206  0.30258470  0.88368174     1.54400
O356        O  0.06281062  0.31597134  0.85375739    -0.82000
O357        O  0.14897065  0.27053365  0.89407036    -0.80300
O358        O  0.04305277  0.27861600  0.83639381    -0.84500
O359        O  0.04194424  0.25032361  0.88911980    -0.79300
O360        O  0.12285471  0.31808414  0.85871631    -0.81100
O361        O  0.12042419  0.21930501  0.88729953    -0.83800
C362        C  0.04030682  0.26843064  0.90763458     0.96900
C363        C  0.04561508  0.30445352  0.83780263     1.04400
O364        O  0.09418875  0.26640139  0.86665084    -1.12800
O365        O  0.12114508  0.22594566  0.82798297    -0.75200
O366        O  0.07974524  0.23914350  0.81530355    -0.78700
O367        O  0.05649148  0.28930022  0.90885537    -0.79400
C368        C  0.10211232  0.22705291  0.81041128     0.95800
O369        O  0.07907545  0.20950987  0.86959491    -0.77400
O370        O  0.14061917  0.28176020  0.83625832    -0.82600
C371        C  0.14165285  0.28457357  0.91467768     0.98500
C372        C  0.13824788  0.30748373  0.83988945     1.04400
O373        O  0.11752654  0.29469506  0.91619673    -0.78200
C374        C  0.09991627  0.20349052  0.88431389     1.02700
Fe375      Fe  0.09595117  0.97288076  0.82548961     1.65800
Fe376      Fe  0.09481395  0.94932284  0.88999451     1.73200
Fe377      Fe  0.13232723  0.91618058  0.84267364     1.54400
O378        O  0.10437519  0.90303135  0.81348330    -0.82000
O379        O  0.13118186  0.93375825  0.90662814    -0.80300
O380        O  0.09093241  0.94287155  0.79521285    -0.84500
O381        O  0.13569215  0.98079532  0.81402865    -0.79300
O382        O  0.11438770  0.88906783  0.87185805    -0.81100
O383        O  0.11101012  0.98753326  0.89417381    -0.83800
C384        C  0.15340020  0.96417304  0.80482118     0.96900
C385        C  0.09169986  0.91667667  0.79513437     1.04400
O386        O  0.10789409  0.94641255  0.85258244    -1.12800
O387        O  0.05695833  0.96612335  0.87991674    -0.75200
O388        O  0.05478018  0.96884381  0.83452325    -0.78700
O389        O  0.15358671  0.93890619  0.81187116    -0.79400
C390        C  0.04389612  0.97125256  0.85803088     0.95800
O391        O  0.09893914  0.00486626  0.85339250    -0.77400
O392        O  0.07745477  0.91159882  0.88644967    -0.82600
C393        C  0.15574761  0.93048012  0.89788674     0.98500
C394        C  0.09170606  0.89004205  0.88524142     1.04400
O395        O  0.16100565  0.92805473  0.87227861    -0.78200
C396        C  0.10638897  0.00746898  0.87829461     1.02700
Fe397      Fe  0.93958981  0.75772738  0.66455763     1.65800
Fe398      Fe  0.87439352  0.77894020  0.66337594     1.73200
Fe399      Fe  0.92143846  0.81158311  0.62438919     1.54400
O400        O  0.95049247  0.82705497  0.65180269    -0.82000
O401        O  0.85757470  0.79201924  0.62635852    -0.80300
O402        O  0.96922970  0.78828489  0.66721566    -0.84500
O403        O  0.95138267  0.74731231  0.62569065    -0.79300
O404        O  0.89200899  0.83890826  0.64081304    -0.81100
O405        O  0.87179010  0.73965784  0.64929893    -0.83800
C406        C  0.96045771  0.76286342  0.60699044     0.96900
C407        C  0.96872652  0.81436179  0.66562050     1.04400
O408        O  0.91188334  0.78250571  0.65043794    -1.12800
O409        O  0.88464276  0.76448836  0.70232430    -0.75200
O410        O  0.93018843  0.76484344  0.70513419    -0.78700
O411        O  0.95273584  0.78787495  0.60477165    -0.79400
C412        C  0.90668883  0.76131069  0.71590717     0.95800
O413        O  0.91259202  0.72497269  0.66443450    -0.77400
O414        O  0.87638220  0.81782085  0.67825768    -0.82600
C415        C  0.86571173  0.79575994  0.60174576     0.98500
C416        C  0.87815187  0.83877448  0.66312730     1.04400
O417        O  0.89135645  0.79856139  0.59601782    -0.78200
C418        C  0.88792696  0.72078187  0.65677567     1.02700
Fe419      Fe  0.91786741  0.48108620  0.69754660     1.65800
Fe420      Fe  0.90623011  0.47930469  0.63070009     1.73200
Fe421      Fe  0.88451499  0.42605780  0.66998796     1.54400
O422        O  0.91521782  0.41030013  0.69519497    -0.82000
O423        O  0.87230142  0.46085038  0.61315036    -0.80300
O424        O  0.93300290  0.44666876  0.71623438    -0.84500
O425        O  0.88228796  0.47772618  0.71878062    -0.79300
O426        O  0.90727128  0.41123064  0.63570028    -0.81100
O427        O  0.88172884  0.51049140  0.64340611    -0.83800
C428        C  0.86401729  0.45942568  0.72145190     0.96900
C429        C  0.93097701  0.42096077  0.71307658     1.04400
O430        O  0.90247069  0.46179207  0.66637540    -1.12800
O431        O  0.94143728  0.50236838  0.64009336    -0.75200
O432        O  0.95575233  0.48532202  0.67931023    -0.78700
O433        O  0.86174296  0.43871271  0.70527676    -0.79400
C434        C  0.96001692  0.49930603  0.65802109     0.95800
O435        O  0.90337334  0.51832814  0.68297803    -0.77400
O436        O  0.93019387  0.44764587  0.61860498    -0.82600
C437        C  0.85152341  0.44735442  0.62121932     0.98500
C438        C  0.92592032  0.42195469  0.62022263     1.04400
O439        O  0.85095531  0.43645671  0.64493582    -0.78200
C440        C  0.88645638  0.52525830  0.66426871     1.02700
Fe441      Fe  0.03077539  0.29958452  0.41552827     1.65800
Fe442      Fe  0.04083555  0.36608705  0.40196674     1.73200
Fe443      Fe  0.08680592  0.31882638  0.38040802     1.54400
O444        O  0.09474579  0.28631740  0.40796774    -0.82000
O445        O  0.04500020  0.37230640  0.36085382    -0.80300
O446        O  0.06236341  0.28859918  0.44044948    -0.84500
O447        O  0.04281209  0.27023698  0.38748870    -0.79300
O448        O  0.10868119  0.34439070  0.40738941    -0.81100
O449        O  0.00032260  0.35559809  0.39470727    -0.83800
C450        C  0.04971238  0.27227149  0.36252796     0.96900
C451        C  0.08517035  0.27950932  0.43154995     1.04400
O452        O  0.05292679  0.32841188  0.39928297    -1.12800
O453        O  0.03539305  0.36369725  0.44375231    -0.75200
O454        O  0.01446764  0.32348689  0.44678409    -0.78700
O455        O  0.06463611  0.29221938  0.35398868    -0.79400
C456        C  0.02048316  0.34675461  0.45669948     0.95800
O457        O  0.99899470  0.30993939  0.39055623    -0.77400
O458        O  0.07999601  0.38023300  0.40959683    -0.82600
C459        C  0.06571393  0.36895224  0.34542143     0.98500
C460        C  0.10218373  0.36823485  0.41621379     1.04400
O461        O  0.08400861  0.35084880  0.35073771    -0.78200
C462        C  0.98798253  0.33342851  0.38845742     1.02700
Fe463      Fe  0.74124796  0.33641972  0.44677089     1.65800
Fe464      Fe  0.73708571  0.34836230  0.37969156     1.73200
Fe465      Fe  0.68856461  0.37562806  0.42222793     1.54400
O466        O  0.67100159  0.34600244  0.44789716    -0.82000
O467        O  0.72310161  0.38500517  0.36385400    -0.80300
O468        O  0.70677300  0.32698887  0.46866977    -0.84500
O469        O  0.74461958  0.37279593  0.46708544    -0.79300
O470        O  0.66889003  0.35577923  0.38892099    -0.81100
O471        O  0.77366515  0.36661523  0.39017695    -0.83800
C472        C  0.72829381  0.39271004  0.47096039     0.96900
C473        C  0.68116191  0.33014738  0.46587769     1.04400
O474        O  0.72213798  0.35403423  0.41641865    -1.12800
O475        O  0.75394861  0.31004569  0.38791763    -0.75200
O476        O  0.73903634  0.29780891  0.42902548    -0.78700
O477        O  0.70633195  0.39641931  0.45669876    -0.79400
C478        C  0.75075392  0.29211741  0.40649312     0.95800
O479        O  0.77902499  0.34337751  0.42907669    -0.77400
O480        O  0.70138102  0.32972538  0.36866530    -0.82600
C481        C  0.71043156  0.40633334  0.37171867     0.98500
C482        C  0.67652959  0.33711415  0.37191902     1.04400
O483        O  0.70028082  0.40799575  0.39587950    -0.78200
C484        C  0.78878172  0.35626642  0.40859685     1.02700
Fe485      Fe  0.84781203  0.06062148  0.27160967     1.65800
Fe486      Fe  0.85247992  0.12641756  0.28956484     1.73200
Fe487      Fe  0.88440621  0.07882950  0.32767982     1.54400
O488        O  0.85469455  0.05191328  0.34184665    -0.82000
O489        O  0.88962083  0.14167015  0.30497548    -0.80300
O490        O  0.84197356  0.03202733  0.30268914    -0.84500
O491        O  0.88669871  0.04671666  0.26391227    -0.79300
O492        O  0.86640068  0.10997404  0.35266292    -0.81100
O493        O  0.87041503  0.12527828  0.25185529    -0.83800
C494        C  0.90323855  0.03707090  0.28137861     0.96900
C495        C  0.84222230  0.03303567  0.32880421     1.04400
O496        O  0.86182724  0.08849867  0.29624846    -1.12800
O497        O  0.81397621  0.11756088  0.27283878    -0.75200
O498        O  0.80774931  0.07259081  0.27699507    -0.78700
O499        O  0.90397228  0.04577019  0.30625653    -0.79400
C500        C  0.79879575  0.09632220  0.27160624     0.95800
O501        O  0.85101105  0.08621207  0.23782881    -0.77400
O502        O  0.83359774  0.12823848  0.32656358    -0.82600
C503        C  0.91296358  0.13150655  0.31111519     0.98500
C504        C  0.84499267  0.12499688  0.34952108     1.04400
O505        O  0.91574772  0.10592812  0.31594155    -0.78200
C506        C  0.86165482  0.10961433  0.23317362     1.02700
Fe507      Fe  0.81306816  0.08323858  0.99573710     1.65800
Fe508      Fe  0.88199491  0.09075003  0.98832131     1.73200
Fe509      Fe  0.83867554  0.11617555  0.93925218     1.54400
O510        O  0.80870401  0.08739957  0.92755806    -0.82000
O511        O  0.89590848  0.12932333  0.97794443    -0.80300
O512        O  0.79975137  0.06006401  0.96340809    -0.84500
O513        O  0.78740151  0.11397520  0.98455467    -0.79300
O514        O  0.86791699  0.09166363  0.91881032    -0.81100
O515        O  0.87117272  0.10640771  0.02588661    -0.83800
C516        C  0.78837839  0.13631691  0.97171181     0.96900
C517        C  0.79734117  0.06621008  0.93819988     1.04400
O518        O  0.84472575  0.09679492  0.97431501    -1.12800
O519        O  0.87522527  0.05056695  0.00066172    -0.75200
O520        O  0.83123542  0.04894845  0.01216087    -0.78700
O521        O  0.80844732  0.14258029  0.95597614    -0.79400
C522        C  0.85483674  0.03832788  0.01126864     0.95800
O523        O  0.82510948  0.10648531  0.02865178    -0.77400
O524        O  0.89492674  0.07493210  0.95193421    -0.82600
C525        C  0.88960522  0.14843176  0.96154643     0.98500
C526        C  0.88770004  0.07659471  0.92706059     1.04400
O527        O  0.86831163  0.14694386  0.94637691    -0.78200
C528        C  0.84876492  0.11263932  0.03796195     1.02700
C529        C  0.90462832  0.13389780  0.11775366    -0.18100
C530        C  0.90669048  0.13232435  0.14625008    -0.20300
C531        C  0.88284110  0.13037294  0.16240761     0.20400
C532        C  0.85661866  0.13221069  0.14999795    -0.03200
C533        C  0.85456329  0.13396187  0.12137698    -0.06300
C534        C  0.87869499  0.13357825  0.10519688     0.20700
C535        C  0.82837024  0.13347454  0.10888898     0.18800
C536        C  0.80448650  0.13365822  0.12513476    -0.17700
C537        C  0.80650584  0.13177276  0.15358832    -0.20000
C538        C  0.83243244  0.12987543  0.16596618     0.20300
C539        C  0.83463181  0.12368325  0.19370452    -0.33000
C540        C  0.86057963  0.11996317  0.20547089     0.01000
C541        C  0.88464798  0.12463506  0.19041663    -0.24300
C542        C  0.87648579  0.13004392  0.07691904    -0.28900
C543        C  0.85053642  0.12582805  0.06496053     0.06700
C544        C  0.82654221  0.12990806  0.08057153    -0.27600
H545        H  0.92329743  0.13385190  0.10549826     0.11400
H546        H  0.92689625  0.13121878  0.15552000     0.12500
H547        H  0.78427259  0.13359604  0.11578495     0.11600
H548        H  0.78783498  0.13038136  0.16576603     0.10800
H549        H  0.81618786  0.12048062  0.20595306     0.16200
H550        H  0.90455034  0.12195781  0.20004468     0.12100
H551        H  0.89508929  0.12780660  0.06475000     0.15000
H552        H  0.80644444  0.12751411  0.07123527     0.14800
C553        C  0.76427359  0.16557781  0.39361222    -0.18100
C554        C  0.75032992  0.18993335  0.40030803    -0.20300
C555        C  0.76426149  0.21522314  0.40015834     0.20400
C556        C  0.79273231  0.21568676  0.39392891    -0.03200
C557        C  0.80704974  0.19102285  0.38854371    -0.06300
C558        C  0.79262118  0.16592420  0.38754535     0.20700
C559        C  0.83553096  0.19175195  0.38249005     0.18800
C560        C  0.84931871  0.21698926  0.38143786    -0.17700
C561        C  0.83489793  0.24138609  0.38544981    -0.20000
C562        C  0.80673133  0.24092804  0.39180911     0.20300
C563        C  0.79226432  0.26540499  0.39537090    -0.33000
C564        C  0.76428437  0.26529365  0.40258091     0.01000
C565        C  0.75029094  0.24013097  0.40533532    -0.24300
C566        C  0.80641565  0.14216740  0.37840674    -0.28900
C567        C  0.83458099  0.14318481  0.37123290     0.06700
C568        C  0.84927700  0.16761689  0.37505630    -0.27600
H569        H  0.75281119  0.14651507  0.39284326     0.11400
H570        H  0.72846770  0.18908062  0.40480261     0.12500
H571        H  0.87102915  0.21795136  0.37628656     0.11600
H572        H  0.84569228  0.26062750  0.38307031     0.10800
H573        H  0.80285142  0.28470376  0.39260612     0.16200
H574        H  0.72852459  0.24003937  0.41041612     0.12100
H575        H  0.79480062  0.12355236  0.37453208     0.15000
H576        H  0.87061100  0.16870884  0.36842848     0.14800
C577        C  0.95419156  0.22383848  0.29677526    -0.18100
C578        C  0.97451903  0.24348791  0.30247618    -0.20300
C579        C  0.99764670  0.23664674  0.31824044     0.20400
C580        C  0.00066543  0.20936046  0.32753526    -0.03200
C581        C  0.98008179  0.18945137  0.32174375    -0.06300
C582        C  0.95652176  0.19689073  0.30671050     0.20700
C583        C  0.98255480  0.16244744  0.33194428     0.18800
C584        C  0.00593596  0.15547664  0.34729662    -0.17700
C585        C  0.02609777  0.17521670  0.35329568    -0.20000
C586        C  0.02345621  0.20232340  0.34389080     0.20300
C587        C  0.04212497  0.22288184  0.35212913    -0.33000
C588        C  0.03840116  0.25050818  0.34436619     0.01000
C589        C  0.01670020  0.25697343  0.32645791    -0.24300
C590        C  0.93528723  0.17758309  0.30263850    -0.28900
C591        C  0.93708562  0.15070642  0.31334052     0.06700
C592        C  0.96122692  0.14320405  0.32746016    -0.27600
H593        H  0.93629031  0.22991702  0.28508954     0.11400
H594        H  0.97175043  0.26427270  0.29516425     0.12500
H595        H  0.00830299  0.13489790  0.35528386     0.11600
H596        H  0.04347096  0.16941409  0.36589322     0.10800
H597        H  0.05826226  0.21784514  0.36658849     0.16200
H598        H  0.01301515  0.27825458  0.32121470     0.12100
H599        H  0.91701710  0.18373294  0.29155364     0.15000
H600        H  0.96297672  0.12272949  0.33589141     0.14800
C601        C  0.89840429  0.29583946  0.40650052    -0.18100
C602        C  0.87110042  0.30087113  0.41341346    -0.20300
C603        C  0.85887735  0.32586474  0.40637472     0.20400
C604        C  0.87402050  0.34611920  0.39232528    -0.03200
C605        C  0.90197696  0.34163143  0.38669183    -0.06300
C606        C  0.91409073  0.31631747  0.39377851     0.20700
C607        C  0.91809072  0.36287130  0.37530084     0.18800
C608        C  0.90558491  0.38770924  0.36786246    -0.17700
C609        C  0.87733839  0.39163116  0.37215142    -0.20000
C610        C  0.86145796  0.37112072  0.38477378     0.20300
C611        C  0.83332571  0.37503868  0.39019429    -0.33000
C612        C  0.81853081  0.35489882  0.40457046     0.01000
C613        C  0.83167468  0.33086957  0.41326488    -0.24300
C614        C  0.94218939  0.31267785  0.39020740    -0.28900
C615        C  0.95872913  0.33471794  0.38195401     0.06700
C616        C  0.94663709  0.35941259  0.37333650    -0.27600
H617        H  0.90758177  0.27640929  0.41222900     0.11400
H618        H  0.85954946  0.28527023  0.42430498     0.12500
H619        H  0.91769768  0.40418894  0.35904165     0.11600
H620        H  0.86807971  0.41095129  0.36629095     0.10800
H621        H  0.82308638  0.39363111  0.38360535     0.16200
H622        H  0.82034216  0.31534972  0.42451329     0.12100
H623        H  0.95151511  0.29364000  0.39697692     0.15000
H624        H  0.95953240  0.37635913  0.36673901     0.14800
C625        C  0.74552313  0.39629541  0.56929044    -0.18100
C626        C  0.76411197  0.40259109  0.59038338    -0.20300
C627        C  0.78571403  0.42130136  0.58599388     0.20400
C628        C  0.78779677  0.43455714  0.56027943    -0.03200
C629        C  0.76898092  0.42821260  0.53893648    -0.06300
C630        C  0.74809400  0.40857441  0.54331538     0.20700
C631        C  0.77212791  0.44029166  0.51274647     0.18800
C632        C  0.79318797  0.45961005  0.50858265    -0.17700
C633        C  0.81156788  0.46609167  0.52972258    -0.20000
C634        C  0.80941141  0.45324238  0.55543733     0.20300
C635        C  0.82914088  0.45802050  0.57594608    -0.33000
C636        C  0.82809671  0.44411764  0.60139182     0.01000
C637        C  0.80579606  0.42620026  0.60641314    -0.24300
C638        C  0.73152040  0.40009496  0.52115202    -0.28900
C639        C  0.73582697  0.41055064  0.49448683     0.06700
C640        C  0.75555145  0.43138314  0.49072170    -0.27600
H641        H  0.72959621  0.38116252  0.57306691     0.11400
H642        H  0.76199276  0.39226295  0.60994745     0.12500
H643        H  0.79594468  0.46917170  0.48869646     0.11600
H644        H  0.82799693  0.48060329  0.52568666     0.10800
H645        H  0.84592519  0.47205228  0.57162459     0.16200
H646        H  0.80456728  0.41536513  0.62577999     0.12100
H647        H  0.71707556  0.38334331  0.52404605     0.15000
H648        H  0.75972177  0.43882032  0.47015609     0.14800
C649        C  0.01977392  0.40755960  0.53760642    -0.18100
C650        C  0.00717939  0.41695154  0.56162548    -0.20300
C651        C  0.98292335  0.40455592  0.57126981     0.20400
C652        C  0.97162306  0.38196107  0.55719593    -0.03200
C653        C  0.98457901  0.37222672  0.53313621    -0.06300
C654        C  0.00850727  0.38540467  0.52308944     0.20700
C655        C  0.97309689  0.34993927  0.51866647     0.18800
C656        C  0.94895650  0.33741299  0.52854929    -0.17700
C657        C  0.93586727  0.34735328  0.55221173    -0.20000
C658        C  0.94682207  0.36983044  0.56652903     0.20300
C659        C  0.93272329  0.38136891  0.58904403    -0.33000
C660        C  0.94319771  0.40490785  0.60199895     0.01000
C661        C  0.96896394  0.41543530  0.59384520    -0.24300
C662        C  0.02037637  0.37665392  0.49836592    -0.28900
C663        C  0.00895346  0.35462883  0.48368586     0.06700
C664        C  0.98555366  0.34106563  0.49419581    -0.27600
H665        H  0.03808097  0.41792708  0.53016666     0.11400
H666        H  0.01598185  0.43441213  0.57224139     0.12500
H667        H  0.93988093  0.32027866  0.51765300     0.11600
H668        H  0.91688818  0.33776589  0.55902566     0.10800
H669        H  0.91281888  0.37327958  0.59517546     0.16200
H670        H  0.97731844  0.43341244  0.60400869     0.12100
H671        H  0.03834383  0.38721238  0.49035595     0.15000
H672        H  0.97645248  0.32422286  0.48284593     0.14800
C673        C  0.85482222  0.63540969  0.61554170    -0.18100
C674        C  0.85384103  0.60682517  0.61694465    -0.20300
C675        C  0.86004807  0.59339853  0.64158434     0.20400
C676        C  0.86506310  0.60879602  0.66559495    -0.03200
C677        C  0.86622050  0.63748490  0.66415278    -0.06300
C678        C  0.86207227  0.65079849  0.63873600     0.20700
C679        C  0.87392338  0.65264758  0.68759218     0.18800
C680        C  0.87799016  0.63940287  0.71274008    -0.17700
C681        C  0.87668343  0.61090097  0.71419108    -0.20000
C682        C  0.87148497  0.59549232  0.69046944     0.20300
C683        C  0.87533849  0.56721443  0.69054295    -0.33000
C684        C  0.87378182  0.55238946  0.66593152     0.01000
C685        C  0.86402668  0.56506371  0.64202742    -0.24300
C686        C  0.86729138  0.67892322  0.63660083    -0.28900
C687        C  0.87734561  0.69318198  0.65935450     0.06700
C688        C  0.87946147  0.68048329  0.68497032    -0.27600
H689        H  0.85130927  0.64537432  0.59600026     0.11400
H690        H  0.84968811  0.59520943  0.59845248     0.12500
H691        H  0.88355528  0.65096438  0.73091498     0.11600
H692        H  0.88134068  0.60087941  0.73345342     0.10800
H693        H  0.88202413  0.55717801  0.70921161     0.16200
H694        H  0.86224436  0.55346118  0.62312631     0.12100
H695        H  0.86554785  0.68922547  0.61697182     0.15000
H696        H  0.88678789  0.69208371  0.70253031     0.14800
C697        C  0.01234157  0.90186385  0.69619583    -0.18100
C698        C  0.02969368  0.91604617  0.71427776    -0.20300
C699        C  0.04522001  0.90180515  0.73389813     0.20400
C700        C  0.04369441  0.87293709  0.73486191    -0.03200
C701        C  0.02629179  0.85861908  0.71651738    -0.06300
C702        C  0.01024646  0.87314269  0.69729396     0.20700
C703        C  0.02452638  0.82980181  0.71785896     0.18800
C704        C  0.04029303  0.81549566  0.73719201    -0.17700
C705        C  0.05738834  0.82965135  0.75538970    -0.20000
C706        C  0.05908904  0.85836522  0.75454577     0.20300
C707        C  0.07541132  0.87272388  0.77347411    -0.33000
C708        C  0.07654777  0.90158868  0.77323494     0.01000
C709        C  0.06169398  0.91592790  0.75297716    -0.24300
C710        C  0.99199563  0.85873808  0.68000045    -0.28900
C711        C  0.98975483  0.82993807  0.68159094     0.06700
C712        C  0.00656199  0.81573729  0.70033677    -0.27600
H713        H  0.00030712  0.91340908  0.68154808     0.11400
H714        H  0.03065711  0.93822471  0.71317412     0.12500
H715        H  0.03913391  0.79334064  0.73847974     0.23600
H716        H  0.06906736  0.81812807  0.77035169     0.10800
H717        H  0.08669225  0.86136009  0.78886524     0.16200
H718        H  0.06235871  0.93814583  0.75245057     0.12100
H719        H  0.97921019  0.86996776  0.66573139     0.15000
H720        H  0.00508425  0.79361867  0.70201167     0.14800
C721        C  0.93159433  0.98843844  0.91405085    -0.18100
C722        C  0.95440929  0.97346881  0.90506878    -0.20300
C723        C  0.97289451  0.98484833  0.88607001     0.20400
C724        C  0.96781565  0.01122691  0.87520301    -0.03200
C725        C  0.94496332  0.02653497  0.88457838    -0.06300
C726        C  0.92708167  0.01513208  0.90437075     0.20700
C727        C  0.94093176  0.05375294  0.87539786     0.18800
C728        C  0.95916477  0.06485080  0.85591319    -0.17700
C729        C  0.98160486  0.04949734  0.84627119    -0.20000
C730        C  0.98637803  0.02286881  0.85614986     0.20300
C731        C  0.01014153  0.00825340  0.84853382    -0.33000
C732        C  0.01600321  0.98272075  0.86058454     0.01000
C733        C  0.99710287  0.97092121  0.87889857    -0.24300
C734        C  0.90610412  0.03122778  0.91560114    -0.28900
C735        C  0.90314173  0.05885190  0.90806231     0.06700
C736        C  0.91987602  0.06984216  0.88721933    -0.27600
H737        H  0.91800964  0.97950223  0.92930126     0.11400
H738        H  0.95797763  0.95323228  0.91352141     0.12500
H739        H  0.95646532  0.08565909  0.84862625     0.11600
H740        H  0.99571271  0.05877365  0.83170791     0.10800
H741        H  0.02511136  0.01762752  0.83487835     0.16200
H742        H  0.00184851  0.95138421  0.88839194     0.12100
H743        H  0.89335463  0.02293192  0.93194047     0.15000
H744        H  0.91794854  0.09132659  0.88183841     0.14800
C745        C  0.92082190  0.23594582  0.91806807    -0.18100
C746        C  0.94207956  0.25456729  0.91211654    -0.20300
C747        C  0.96785691  0.25228120  0.92492311     0.20400
C748        C  0.97179969  0.23177196  0.94486984    -0.03200
C749        C  0.95023683  0.21301512  0.95098986    -0.06300
C750        C  0.92483438  0.21466625  0.93703062     0.20700
C751        C  0.95464114  0.19175861  0.97000438     0.18800
C752        C  0.98015219  0.18991931  0.98338174    -0.17700
C753        C  0.00158766  0.20812786  0.97698283    -0.20000
C754        C  0.99786162  0.22878869  0.95731923     0.20300
C755        C  0.02027789  0.24490393  0.94823635    -0.33000
C756        C  0.01701785  0.26397480  0.92684675     0.01000
C757        C  0.99034871  0.26854334  0.91644506    -0.24300
C758        C  0.90443050  0.19436600  0.94134275    -0.28900
C759        C  0.90906139  0.17236783  0.95952499     0.06700
C760        C  0.93401923  0.17193017  0.97438988    -0.27600
H761        H  0.90148533  0.23773048  0.90723355     0.11400
H762        H  0.93865132  0.27019074  0.89671393     0.12500
H763        H  0.98387190  0.17375362  0.99814008     0.11600
H764        H  0.02136716  0.20550294  0.98681998     0.10800
H765        H  0.04081203  0.24048488  0.95565422     0.16200
H766        H  0.98781654  0.28243800  0.89927344     0.12100
H767        H  0.88542459  0.19517060  0.92981780     0.15000
H768        H  0.93807465  0.15532405  0.98856720     0.14800
C769        C  0.00873752  0.39496990  0.81019221    -0.18100
C770        C  0.99282492  0.41111067  0.79267033    -0.20300
C771        C  0.97795224  0.39901883  0.77116385     0.20400
C772        C  0.97875139  0.37035695  0.76747859    -0.03200
C773        C  0.99478878  0.35403586  0.78522582    -0.06300
C774        C  0.01002845  0.36644765  0.80653399     0.20700
C775        C  0.99575627  0.32537367  0.78149122     0.18800
C776        C  0.98050708  0.31325965  0.76023287    -0.17700
C777        C  0.96464140  0.32943929  0.74262978    -0.20000
C778        C  0.96370942  0.35802933  0.74597118     0.20300
C779        C  0.94813327  0.37449985  0.72815330    -0.33000
C780        C  0.94748383  0.40318442  0.73152066     0.01000
C781        C  0.96241496  0.41516075  0.75323821    -0.24300
C782        C  0.02647162  0.35020061  0.82367222    -0.28900
C783        C  0.02783357  0.32160375  0.81994537     0.06700
C784        C  0.01214126  0.30936423  0.79890116    -0.27600
H785        H  0.02018268  0.40482569  0.82650190     0.11400
H786        H  0.99230471  0.43311648  0.79583527     0.12500
H787        H  0.98098192  0.29125401  0.75710794     0.11600
H788        H  0.95319802  0.31958588  0.72630609     0.10800
H789        H  0.93664362  0.36499773  0.71164497     0.16200
H790        H  0.96195331  0.43718348  0.75632831     0.12100
H791        H  0.03823015  0.35985776  0.83989016     0.15000
H792        H  0.01294136  0.28735698  0.79577603     0.14800
C793        C  0.05567784  0.08854784  0.90546808    -0.18100
C794        C  0.05454522  0.11710074  0.90682279    -0.20300
C795        C  0.07873308  0.13263359  0.90435140     0.20400
C796        C  0.10453767  0.11935841  0.90262612    -0.03200
C797        C  0.10568110  0.09065583  0.90100936    -0.06300
C798        C  0.08100859  0.07532667  0.90151567     0.20700
C799        C  0.13126609  0.07747884  0.89658932     0.18800
C800        C  0.15558796  0.09295087  0.89584037    -0.17700
C801        C  0.15446848  0.12148227  0.89769527    -0.20000
C802        C  0.12899721  0.13480877  0.90011863     0.20300
C803        C  0.12734411  0.16321338  0.89753565    -0.33000
C804        C  0.10154377  0.17602751  0.89604878     0.01000
C805        C  0.07742192  0.16102982  0.90108008    -0.24300
C806        C  0.08194137  0.04732463  0.89597154    -0.28900
C807        C  0.10706827  0.03480887  0.88963285     0.06700
C808        C  0.13178946  0.04937024  0.89102164    -0.27600
H809        H  0.03666656  0.07691187  0.90612060     0.11400
H810        H  0.03465086  0.12705518  0.90845160     0.12500
H811        H  0.17533234  0.08308620  0.89265544     0.11600
H812        H  0.17337885  0.13317260  0.89584883     0.10800
H813        H  0.14598752  0.17490759  0.89374349     0.16200
H814        H  0.05755936  0.17117052  0.90036100     0.12100
H815        H  0.06299893  0.03555241  0.89481351     0.15000
H816        H  0.15103816  0.03921874  0.88603009     0.14800
C817        C  0.19353445  0.31404336  0.75593915    -0.18100
C818        C  0.21687405  0.32405791  0.74237053    -0.20300
C819        C  0.23166400  0.34624593  0.75326706     0.20400
C820        C  0.22221506  0.35920149  0.77749514    -0.03200
C821        C  0.19875501  0.34892616  0.79134426    -0.06300
C822        C  0.18471317  0.32596649  0.78070254     0.20700
C823        C  0.19017810  0.36076610  0.81647474     0.18800
C824        C  0.20452688  0.38352838  0.82685249    -0.17700
C825        C  0.22762646  0.39389265  0.81297510    -0.20000
C826        C  0.23692750  0.38158612  0.78856112     0.20300
C827        C  0.26137034  0.39037436  0.77573414    -0.33000
C828        C  0.27170344  0.37645387  0.75255268     0.01000
C829        C  0.25639960  0.35485919  0.74106649    -0.24300
C830        C  0.16307386  0.31432653  0.79575088    -0.28900
C831        C  0.15556994  0.32477693  0.82171598     0.06700
C832        C  0.16844626  0.34870045  0.83148118    -0.27600
H833        H  0.18287515  0.29642445  0.74750247     0.11400
H834        H  0.22375096  0.31400774  0.72370678     0.12500
H835        H  0.19828403  0.39291437  0.84603688     0.11600
H836        H  0.23868178  0.41110718  0.82176791     0.10800
H837        H  0.27327829  0.40687182  0.78481455     0.16200
H838        H  0.26425950  0.34417371  0.72313120     0.12100
H839        H  0.15309127  0.29598874  0.78797014     0.15000
H840        H  0.16294923  0.35670688  0.85151112     0.14800
C841        C  0.19838260  0.33736564  0.01751210    -0.18100
C842        C  0.17652386  0.33105243  0.99976674    -0.20300
C843        C  0.18016626  0.31249034  0.97794968     0.20400
C844        C  0.20607400  0.29966108  0.97461626    -0.03200
C845        C  0.22818433  0.30602416  0.99257115    -0.06300
C846        C  0.22442958  0.32527106  0.01388900     0.20700
C847        C  0.25442257  0.29422164  0.98824759     0.18800
C848        C  0.25803234  0.27538275  0.96672270    -0.17700
C849        C  0.23615787  0.26886310  0.94922754    -0.20000
C850        C  0.21024276  0.28120902  0.95273723     0.20300
C851        C  0.18875884  0.27595317  0.93421068    -0.33000
C852        C  0.16288593  0.28909086  0.93667746     0.01000
C853        C  0.15871066  0.30712351  0.95901601    -0.24300
C854        C  0.24719630  0.33348653  0.02990213    -0.28900
C855        C  0.27383710  0.32317720  0.02454662     0.06700
C856        C  0.27699830  0.30286846  0.00421455    -0.27600
H857        H  0.19507246  0.35227071  0.03371021     0.11400
H858        H  0.15687630  0.34112784  0.00281224     0.12500
H859        H  0.27798381  0.26612515  0.96301255     0.11600
H860        H  0.23970766  0.25460182  0.93251706     0.10800
H861        H  0.19256359  0.26194438  0.91733392     0.16200
H862        H  0.13909845  0.31747194  0.96128855     0.12100
H863        H  0.24472760  0.34997655  0.04467792     0.15000
H864        H  0.29751889  0.29564862  0.99915081     0.14800
C865        C  0.34774842  0.32460143  0.85773402    -0.18100
C866        C  0.34665980  0.32304226  0.88628714    -0.20300
C867        C  0.36234201  0.34112271  0.90223891     0.20400
C868        C  0.38045124  0.35996930  0.88939876    -0.03200
C869        C  0.38090913  0.36210694  0.86077581    -0.06300
C870        C  0.36412581  0.34460663  0.84494848     0.20700
C871        C  0.39664341  0.38304757  0.84812430     0.18800
C872        C  0.41339848  0.40019200  0.86399964    -0.17700
C873        C  0.41355347  0.39756088  0.89243839    -0.20000
C874        C  0.39654723  0.37812624  0.90521492     0.20300
C875        C  0.39369467  0.37800300  0.93353453    -0.33000
C876        C  0.37392572  0.36119560  0.94587208     0.01000
C877        C  0.35885444  0.34216460  0.93065962    -0.24300
C878        C  0.36261004  0.34868881  0.81676842    -0.28900
C879        C  0.37649097  0.37082576  0.80468398     0.06700
C880        C  0.39399347  0.38753108  0.82004083    -0.27600
H881        H  0.33484411  0.31104456  0.84570388     0.11400
H882        H  0.33289892  0.30834987  0.89587902     0.12500
H883        H  0.42568453  0.41616487  0.85449960     0.11600
H884        H  0.42593468  0.41158795  0.90449914     0.10800
H885        H  0.40498208  0.39278630  0.94583361     0.16200
H886        H  0.34361262  0.32933386  0.94074627     0.12100
H887        H  0.34888669  0.33607660  0.80455095     0.15000
H888        H  0.40466323  0.40449721  0.81028284     0.14800
C889        C  0.86597368  0.49904961  0.83773873    -0.18100
C890        C  0.87128553  0.47977366  0.81702091    -0.20300
C891        C  0.85437675  0.47823831  0.79373535     0.20400
C892        C  0.83127351  0.49553439  0.79177869    -0.03200
C893        C  0.82568684  0.51474281  0.81292616    -0.06300
C894        C  0.84348362  0.51698185  0.83573138     0.20700
C895        C  0.80309360  0.53261319  0.81053734     0.18800
C896        C  0.78590606  0.53075980  0.78747840    -0.17700
C897        C  0.79186516  0.51227725  0.76624367    -0.20000
C898        C  0.81482760  0.49493360  0.76788114     0.20300
C899        C  0.82298732  0.47878787  0.74521979    -0.33000
C900        C  0.84712409  0.46298122  0.74640529     0.01000
C901        C  0.86156530  0.46145393  0.77139156    -0.24300
C902        C  0.83915375  0.53780587  0.85545377    -0.28900
C903        C  0.81714123  0.55637785  0.85271247     0.06700
C904        C  0.79875086  0.55289225  0.83054888    -0.27600
H905        H  0.87985496  0.50034542  0.85504760     0.11400
H906        H  0.88923432  0.46673073  0.81874586     0.12500
H907        H  0.76839548  0.54432328  0.78539101     0.11600
H908        H  0.77892842  0.51210215  0.74817125     0.10800
H909        H  0.81230368  0.48080181  0.72582752     0.16200
H910        H  0.88068550  0.44999120  0.77210714     0.12100
H911        H  0.85346703  0.54014973  0.87230721     0.15000
H912        H  0.78157900  0.56682502  0.82805582     0.14800
C913        C  0.85102371  0.74058390  0.82817775    -0.18100
C914        C  0.85764137  0.75541791  0.80453153    -0.20300
C915        C  0.87870247  0.74639732  0.78693806     0.20400
C916        C  0.89388590  0.72265145  0.79375740    -0.03200
C917        C  0.88676126  0.70727928  0.81734277    -0.06300
C918        C  0.86502057  0.71620794  0.83436432     0.20700
C919        C  0.90017428  0.68214589  0.82290739     0.18800
C920        C  0.92179706  0.67361836  0.80569508    -0.17700
C921        C  0.92936118  0.68922807  0.78271060    -0.20000
C922        C  0.91514284  0.71345020  0.77623281     0.20300
C923        C  0.92080483  0.72784081  0.75184601    -0.33000
C924        C  0.90468543  0.75057604  0.74421715     0.01000
C925        C  0.88394592  0.75994759  0.76204255    -0.24300
C926        C  0.85614586  0.69956304  0.85601495    -0.28900
C927        C  0.86754997  0.67338113  0.86011530     0.06700
C928        C  0.89031698  0.66514559  0.84424829    -0.27600
H929        H  0.83424468  0.74762423  0.84108825     0.11400
H930        H  0.84586051  0.77363358  0.79969117     0.12500
H931        H  0.93241624  0.65448048  0.80959744     0.11600
H932        H  0.94571106  0.68184632  0.76946360     0.10800
H933        H  0.93640798  0.72018840  0.73783954     0.16200
H934        H  0.87135716  0.77729060  0.75609149     0.12100
H935        H  0.83823914  0.70567864  0.86792716     0.15000
H936        H  0.89871838  0.64472656  0.84691291     0.14800
C937        C  0.42034519  0.56754461  0.75180176    -0.18100
C938        C  0.41412279  0.54586917  0.73387683    -0.20300
C939        C  0.42422342  0.51932393  0.73873630     0.20400
C940        C  0.44162444  0.51482621  0.76137181    -0.03200
C941        C  0.44795229  0.53678845  0.77949573    -0.06300
C942        C  0.43684505  0.56318987  0.77498939     0.20700
C943        C  0.46430124  0.53199206  0.80280761     0.18800
C944        C  0.47501457  0.50560929  0.80728963    -0.17700
C945        C  0.46848572  0.48385715  0.78958975    -0.20000
C946        C  0.45130521  0.48806681  0.76687668     0.20300
C947        C  0.44200322  0.46576183  0.75083608    -0.33000
C948        C  0.42336794  0.46988695  0.72916451     0.01000
C949        C  0.41556612  0.49691389  0.72259828    -0.24300
C950        C  0.44145960  0.58441009  0.79428192    -0.28900
C951        C  0.45677194  0.57949198  0.81829360     0.06700
C952        C  0.46869516  0.55328793  0.82185414    -0.27600
H953        H  0.41164930  0.58760293  0.74788288     0.11400
H954        H  0.40067809  0.54971876  0.71662329     0.12500
H955        H  0.48776472  0.50157811  0.82501976     0.11600
H956        H  0.47624356  0.46354525  0.79413947     0.10800
H957        H  0.44732851  0.44498871  0.75668704     0.16200
H958        H  0.40043126  0.50016763  0.70662947     0.12100
H959        H  0.43210208  0.60432829  0.79121013     0.15000
H960        H  0.48075524  0.54911407  0.84004216     0.14800
C961        C  0.36833168  0.53953653  0.99884147    -0.18100
C962        C  0.37478221  0.56392836  0.98514793    -0.20300
C963        C  0.38174228  0.56359148  0.95716983     0.20400
C964        C  0.38132133  0.53853837  0.94259253    -0.03200
C965        C  0.37555917  0.51381784  0.95659132    -0.06300
C966        C  0.36921107  0.51433583  0.98491593     0.20700
C967        C  0.37727735  0.48852551  0.94252149     0.18800
C968        C  0.38333493  0.48827581  0.91432207    -0.17700
C969        C  0.38866851  0.51281142  0.90037054    -0.20000
C970        C  0.38830933  0.53797745  0.91443405     0.20300
C971        C  0.39694053  0.56222672  0.90143556    -0.33000
C972        C  0.39983142  0.58662613  0.91655040     0.01000
C973        C  0.39116363  0.58745813  0.94406567    -0.24300
C974        C  0.36463600  0.48960607  0.99896299    -0.28900
C975        C  0.36743497  0.46442545  0.98527897     0.06700
C976        C  0.37357017  0.46394719  0.95707195    -0.27600
H977        H  0.36346342  0.54030036  0.02055147     0.11400
H978        H  0.37496587  0.58298730  0.99660461     0.12500
H979        H  0.38451426  0.46905472  0.90318239     0.11600
H980        H  0.39403036  0.51200148  0.87876784     0.10800
H981        H  0.40448017  0.56139864  0.88044941     0.16200
H982        H  0.39407158  0.60610871  0.95585967     0.12100
H983        H  0.35980307  0.48984460  0.02070763     0.15000
H984        H  0.37532624  0.44441766  0.94650551     0.14800
C985        C  0.62559990  0.61809878  0.84069526    -0.18100
C986        C  0.65413549  0.61562440  0.84280892    -0.20300
C987        C  0.66621322  0.60955540  0.86818210     0.20400
C988        C  0.64949481  0.60386962  0.89118761    -0.03200
C989        C  0.62080124  0.60616694  0.88902833    -0.06300
C990        C  0.60887837  0.61432353  0.86388338     0.20700
C991        C  0.60422483  0.60233147  0.91255322     0.18800
C992        C  0.61616937  0.59454486  0.93748098    -0.17700
C993        C  0.64470623  0.59245014  0.93964742    -0.20000
C994        C  0.66151002  0.59811635  0.91689866     0.20300
C995        C  0.68996233  0.60062365  0.91998433    -0.33000
C996        C  0.70626121  0.60927814  0.89780533     0.01000
C997        C  0.69461843  0.61158182  0.87153450    -0.24300
C998        C  0.58070729  0.62008740  0.86288637    -0.28900
C999        C  0.56483470  0.61773714  0.88672003     0.06700
C1000       C  0.57621067  0.60800138  0.91113112    -0.27600
H1001       H  0.61671896  0.62404954  0.82123747     0.11400
H1002       H  0.66681330  0.61983332  0.82495334     0.12500
H1003       H  0.60354486  0.59132389  0.95558724     0.11600
H1004       H  0.65366308  0.58774179  0.95940819     0.10800
H1005       H  0.69903445  0.59808588  0.94010821     0.16200
H1006       H  0.70722680  0.61763668  0.85415258     0.12100
H1007       H  0.57139756  0.62749249  0.84412181     0.15000
H1008       H  0.56340931  0.60616939  0.92935236     0.14800
C1009       C  0.36367758  0.84231984  0.29192272    -0.18100
C1010       C  0.36042179  0.87072195  0.29200285    -0.20300
C1011       C  0.35699134  0.88476530  0.31690378     0.20400
C1012       C  0.35387766  0.87003777  0.34163596    -0.03200
C1013       C  0.35685156  0.84143491  0.34152708    -0.06300
C1014       C  0.36317127  0.82778523  0.31670530     0.20700
C1015       C  0.35623437  0.82688476  0.36658987     0.18800
C1016       C  0.35046608  0.84075921  0.39116212    -0.17700
C1017       C  0.34783442  0.86926120  0.39128784    -0.20000
C1018       C  0.35082519  0.88408735  0.36683163     0.20300
C1019       C  0.35410831  0.91252798  0.36746298    -0.33000
C1020       C  0.36131135  0.92653803  0.34336564     0.01000
C1021       C  0.35999433  0.91314567  0.31791313    -0.24300
C1022       C  0.37101809  0.80033946  0.31746124    -0.28900
C1023       C  0.37230993  0.78660166  0.34258100     0.06700
C1024       C  0.36360437  0.79920873  0.36686442    -0.27600
H1025       H  0.36809682  0.83194307  0.27271074     0.11400
H1026       H  0.36250895  0.88183735  0.27286893     0.12500
H1027       H  0.34961576  0.82978505  0.41044303     0.11600
H1028       H  0.34515377  0.87981022  0.41072403     0.10800
H1029       H  0.35440721  0.92310225  0.38706900     0.16200
H1030       H  0.36451993  0.92431441  0.29919298     0.12100
H1031       H  0.37753034  0.79000089  0.29877937     0.15000
H1032       H  0.36458610  0.78809199  0.38607652     0.14800
C1033       C  0.90608841  0.93753559  0.26749530    -0.18100
C1034       C  0.91279309  0.91513265  0.25060649    -0.20300
C1035       C  0.93132852  0.91817105  0.22860159     0.20400
C1036       C  0.94358750  0.94410770  0.22402745    -0.03200
C1037       C  0.93674263  0.96680317  0.24105778    -0.06300
C1038       C  0.91772462  0.96353126  0.26276777     0.20700
C1039       C  0.94794300  0.99301433  0.23554312     0.18800
C1040       C  0.96669434  0.99604841  0.21375044    -0.17700
C1041       C  0.97369814  0.97358784  0.19714888    -0.20000
C1042       C  0.96190849  0.94765302  0.20182526     0.20300
C1043       C  0.96734874  0.92553508  0.18403951    -0.33000
C1044       C  0.95454279  0.89970989  0.18769469     0.01000
C1045       C  0.93700640  0.89608027  0.21054007    -0.24300
C1046       C  0.90953195  0.98656493  0.27835329    -0.28900
C1047       C  0.91951629  0.01299993  0.27210554     0.06700
C1048       C  0.93905586  0.01594174  0.25089885    -0.27600
H1049       H  0.89131182  0.93463255  0.28396286     0.11400
H1050       H  0.90308047  0.89549666  0.25449158     0.12500
H1051       H  0.97555995  0.01594812  0.20918913     0.11600
H1052       H  0.98786400  0.97666989  0.18019590     0.10800
H1053       H  0.98099562  0.92875272  0.16667227     0.16200
H1054       H  0.92680590  0.87652687  0.21353379     0.12100
H1055       H  0.89363055  0.98429936  0.29388502     0.15000
H1056       H  0.94607440  0.03632084  0.24531567     0.14800
C1057       C  0.91438937  0.68394188  0.01579599    -0.18100
C1058       C  0.92893041  0.69958072  0.03494299    -0.20300
C1059       C  0.91620240  0.72169897  0.04836421     0.20400
C1060       C  0.88846876  0.72798274  0.04270446    -0.03200
C1061       C  0.87380884  0.71223828  0.02329500    -0.06300
C1062       C  0.88689387  0.69018178  0.00973983     0.20700
C1063       C  0.84618473  0.71870813  0.01729806     0.18800
C1064       C  0.83339295  0.74068189  0.03095000    -0.17700
C1065       C  0.84793566  0.75630702  0.05018972    -0.20000
C1066       C  0.87552338  0.75022690  0.05610617     0.20300
C1067       C  0.89059307  0.76638825  0.07464150    -0.33000
C1068       C  0.91854402  0.76075941  0.07969322     0.01000
C1069       C  0.93097057  0.73801344  0.06684038    -0.24300
C1070       C  0.87231822  0.67475057  0.99033275    -0.28900
C1071       C  0.84477132  0.68103509  0.98414096     0.06700
C1072       C  0.83186916  0.70311828  0.99775034    -0.27600
H1073       H  0.92471317  0.66704578  0.00559544     0.11400
H1074       H  0.95022777  0.69451273  0.03908794     0.12500
H1075       H  0.81216242  0.74588740  0.02663450     0.11600
H1076       H  0.83767179  0.77330299  0.06026675     0.10800
H1077       H  0.88083675  0.78391139  0.08432911     0.16200
H1078       H  0.95243608  0.73335064  0.07066965     0.12100
H1079       H  0.88249487  0.65779701  0.98006203     0.15000
H1080       H  0.81060347  0.70809823  0.99330336     0.14800
C1081       C  0.89079093  0.91672851  0.01582100    -0.18100
C1082       C  0.88390952  0.94164966  0.00348065    -0.20300
C1083       C  0.87351581  0.96336993  0.01931958     0.20400
C1084       C  0.86864839  0.95944476  0.04766894    -0.03200
C1085       C  0.87598402  0.93436763  0.06021882    -0.06300
C1086       C  0.88768708  0.91321667  0.04424584     0.20700
C1087       C  0.87334040  0.93115446  0.08894471     0.18800
C1088       C  0.86156252  0.95242644  0.10451577    -0.17700
C1089       C  0.85366347  0.97704932  0.09197459    -0.20000
C1090       C  0.85779556  0.98103274  0.06370162     0.20300
C1091       C  0.85230914  0.00649931  0.05134058    -0.33000
C1092       C  0.85862217  0.01090744  0.02347741     0.01000
C1093       C  0.86884113  0.98920082  0.00749964    -0.24300
C1094       C  0.89828618  0.88991943  0.05720115    -0.28900
C1095       C  0.89851709  0.88789228  0.08599952     0.06700
C1096       C  0.88456948  0.90777177  0.10172645    -0.27600
H1097       H  0.89967255  0.90059295  0.00328090     0.11400
H1098       H  0.88745148  0.94419426  0.98167676     0.12500
H1099       H  0.85922551  0.95035143  0.12653007     0.11600
H1100       H  0.84522658  0.99335812  0.10458001     0.10800
H1101       H  0.84429139  0.02328930  0.06361606     0.16200
H1102       H  0.87329743  0.99252886  0.98594588     0.12100
H1103       H  0.90912439  0.87466652  0.04504215     0.15000
H1104       H  0.88502832  0.90653163  0.12392832     0.14800
C1105       C  0.01429227  0.84336131  0.92757422    -0.18100
C1106       C  0.00049250  0.83792711  0.95227718    -0.20300
C1107       C  0.01447086  0.83961273  0.97737550     0.20400
C1108       C  0.04301448  0.84543455  0.97741450    -0.03200
C1109       C  0.05709236  0.85015335  0.95243082    -0.06300
C1110       C  0.04242717  0.85008828  0.92749772     0.20700
C1111       C  0.08540258  0.85688136  0.95261421     0.18800
C1112       C  0.09957772  0.85785944  0.97763435    -0.17700
C1113       C  0.08557048  0.85356069  0.00238428    -0.20000
C1114       C  0.05722429  0.84793845  0.00249231     0.20300
C1115       C  0.04266783  0.84569514  0.02725033    -0.33000
C1116       C  0.01424829  0.84042310  0.02733978     0.01000
C1117       C  0.00030524  0.83660552  0.00245542    -0.24300
C1118       C  0.05554753  0.85914657  0.90340602    -0.28900
C1119       C  0.08311635  0.86803273  0.90398455     0.06700
C1120       C  0.09841734  0.86499922  0.92816760    -0.27600
H1121       H  0.00275678  0.84311923  0.90859749     0.11400
H1122       H  0.97865106  0.83338375  0.95181974     0.12500
H1123       H  0.12126900  0.86306630  0.97814673     0.11600
H1124       H  0.09677317  0.85534848  0.02150019     0.10800
H1125       H  0.05339653  0.84820585  0.04658582     0.16200
H1126       H  0.97838129  0.83237706  0.00266544     0.12100
H1127       H  0.04358112  0.86206922  0.88490709     0.15000
H1128       H  0.11941763  0.87260069  0.92883462     0.14800
C1129       C  0.18707183  0.93774273  0.99457271    -0.18100
C1130       C  0.20703097  0.93362872  0.01483939    -0.20300
C1131       C  0.23338531  0.92399355  0.00780166     0.20400
C1132       C  0.23982231  0.91907463  0.97994389    -0.03200
C1133       C  0.21957860  0.92316263  0.95943786    -0.06300
C1134       C  0.19301526  0.93224975  0.96685447     0.20700
C1135       C  0.22563880  0.91722623  0.93167655     0.18800
C1136       C  0.25201618  0.90764315  0.92468498    -0.17700
C1137       C  0.27192168  0.90330816  0.94498237    -0.20000
C1138       C  0.26597182  0.90864487  0.97271710     0.20300
C1139       C  0.28492700  0.90183328  0.99345850    -0.33000
C1140       C  0.27805264  0.90509747  0.02137438     0.01000
C1141       C  0.25263944  0.91726435  0.02825557    -0.24300
C1142       C  0.17266763  0.93503354  0.94656749    -0.28900
C1143       C  0.17829603  0.92885110  0.91874355     0.06700
C1144       C  0.20507777  0.92028449  0.91151504    -0.27600
H1145       H  0.16676047  0.94473480  0.00067298     0.11400
H1146       H  0.20162553  0.93734584  0.03610891     0.12500
H1147       H  0.25710067  0.90294335  0.90353089     0.11600
H1148       H  0.29182743  0.89519349  0.93902242     0.10800
H1149       H  0.30388545  0.89139891  0.98801588     0.16200
H1150       H  0.24666918  0.91871154  0.04968112     0.12100
H1151       H  0.15222514  0.94172801  0.95260377     0.15000
H1152       H  0.20976013  0.91533994  0.89032552     0.14800
C1153       C  0.35636712  0.98558495  0.17042117    -0.18100
C1154       C  0.36006092  0.00494977  0.19148587    -0.20300
C1155       C  0.34408491  0.00380980  0.21561087     0.20400
C1156       C  0.32343522  0.98361955  0.21798863    -0.03200
C1157       C  0.31966537  0.96409153  0.19666174    -0.06300
C1158       C  0.33656613  0.96466978  0.17295370     0.20700
C1159       C  0.29986433  0.94319458  0.19972652     0.18800
C1160       C  0.28350477  0.94235238  0.22355434    -0.17700
C1161       C  0.28751454  0.96134202  0.24474787    -0.20000
C1162       C  0.30778925  0.98174390  0.24245658     0.20300
C1163       C  0.31433179  0.99856775  0.26508517    -0.33000
C1164       C  0.33655273  0.01704150  0.26377364     0.01000
C1165       C  0.35003658  0.02080508  0.23829556    -0.24300
C1166       C  0.33407449  0.94376186  0.15284154    -0.28900
C1167       C  0.31488463  0.92221487  0.15622789     0.06700
C1168       C  0.29742573  0.92277893  0.17952429    -0.27600
H1169       H  0.36952261  0.98655903  0.15243176     0.11400
H1170       H  0.37610337  0.02026912  0.18929458     0.12500
H1171       H  0.26814523  0.92642381  0.22619733     0.11600
H1172       H  0.27530876  0.95952128  0.26331516     0.10800
H1173       H  0.30446383  0.99481529  0.28472149     0.16200
H1174       H  0.36780274  0.03429867  0.23730872     0.12100
H1175       H  0.34770228  0.94373457  0.13516397     0.15000
H1176       H  0.28237569  0.90662968  0.18258022     0.14800
C1177       C  0.43524396  0.76721105  0.98540096    -0.18100
C1178       C  0.42055184  0.78363721  0.00393256    -0.20300
C1179       C  0.39169542  0.78471770  0.00299263     0.20400
C1180       C  0.37753394  0.76899623  0.98314460    -0.03200
C1181       C  0.39238917  0.75243809  0.96437524    -0.06300
C1182       C  0.42136568  0.75155806  0.96556966     0.20700
C1183       C  0.37824204  0.73656640  0.94464898     0.18800
C1184       C  0.34937395  0.73766752  0.94369253    -0.17700
C1185       C  0.33466307  0.75403653  0.96228790    -0.20000
C1186       C  0.34853590  0.76964516  0.98216906     0.20300
C1187       C  0.33390967  0.78576494  0.00115841    -0.33000
C1188       C  0.34781735  0.80160650  0.02099600     0.01000
C1189       C  0.37677392  0.80109168  0.02163253    -0.24300
C1190       C  0.43598245  0.73472631  0.94723922    -0.28900
C1191       C  0.42211783  0.71831930  0.92782820     0.06700
C1192       C  0.39316559  0.71957417  0.92655120    -0.27600
H1193       H  0.45750994  0.76667373  0.98665576     0.11400
H1194       H  0.43177588  0.79545166  0.01906347     0.12500
H1195       H  0.33814421  0.72570288  0.92868346     0.11600
H1196       H  0.31238153  0.75437690  0.96120212     0.10800
H1197       H  0.31160090  0.78612530  0.00036248     0.16200
H1198       H  0.38765299  0.81302884  0.03693461     0.12100
H1199       H  0.45823546  0.73388065  0.94864770     0.15000
H1200       H  0.38222282  0.70709941  0.91172940     0.14800
C1201       C  0.42160707  0.81697596  0.20386310    -0.18100
C1202       C  0.42936146  0.80119842  0.22654930    -0.20300
C1203       C  0.41996788  0.77407342  0.22940257     0.20400
C1204       C  0.40379807  0.76224004  0.20853162    -0.03200
C1205       C  0.39668901  0.77790233  0.18523514    -0.06300
C1206       C  0.40478202  0.80573690  0.18334868     0.20700
C1207       C  0.37974075  0.76630450  0.16486908     0.18800
C1208       C  0.37072815  0.73905021  0.16746041    -0.17700
C1209       C  0.37723035  0.72378926  0.19080725    -0.20000
C1210       C  0.39321207  0.73537541  0.21174725     0.20300
C1211       C  0.39745544  0.72121209  0.23646248    -0.33000
C1212       C  0.41289607  0.73323326  0.25756724     0.01000
C1213       C  0.42500147  0.75918006  0.25348258    -0.24300
C1214       C  0.39395469  0.82232310  0.16232872    -0.28900
C1215       C  0.37553078  0.81114948  0.14316099     0.06700
C1216       C  0.37000324  0.78282861  0.14357111    -0.27600
H1217       H  0.42809107  0.83822624  0.20278729     0.11400
H1218       H  0.44176882  0.81059154  0.24243399     0.12500
H1219       H  0.35758812  0.72993673  0.15200581     0.11600
H1220       H  0.36907680  0.70318348  0.19284185     0.10800
H1221       H  0.38799886  0.70130770  0.23969194     0.16200
H1222       H  0.43649087  0.76869379  0.27000664     0.12100
H1223       H  0.39762160  0.84426984  0.16252994     0.15000
H1224       H  0.35522324  0.77439157  0.12919387     0.14800
C1225       C  0.15228643  0.83105835  0.16104891    -0.18100
C1226       C  0.12363689  0.82990505  0.16221333    -0.20300
C1227       C  0.10789607  0.84470844  0.14334175     0.20400
C1228       C  0.12100074  0.86160789  0.12365339    -0.03200
C1229       C  0.14981377  0.86227426  0.12208564    -0.06300
C1230       C  0.16544385  0.84668885  0.14073420     0.20700
C1231       C  0.16292508  0.87724467  0.10091017     0.18800
C1232       C  0.14716913  0.89271289  0.08254778    -0.17700
C1233       C  0.11849321  0.89252527  0.08446527    -0.20000
C1234       C  0.10530748  0.87658610  0.10453359     0.20300
C1235       C  0.07673442  0.87406868  0.10487291    -0.33000
C1236       C  0.06406772  0.85604980  0.12332189     0.01000
C1237       C  0.07934949  0.84180961  0.14282523    -0.24300
C1238       C  0.19390060  0.84563567  0.13768945    -0.28900
C1239       C  0.20669033  0.85880294  0.11550623     0.06700
C1240       C  0.19141673  0.87517546  0.09757867    -0.27600
H1241       H  0.16414680  0.81896671  0.17540287     0.11400
H1242       H  0.11380663  0.81695981  0.17743630     0.12500
H1243       H  0.15698539  0.90436729  0.06629990     0.11600
H1244       H  0.10661588  0.90405161  0.06967025     0.10800
H1245       H  0.06445682  0.88458986  0.08961485     0.16200
H1246       H  0.06908543  0.82777215  0.15678032     0.12100
H1247       H  0.20586503  0.83272324  0.15126663     0.15000
H1248       H  0.20157237  0.88533253  0.08051909     0.14800
C1249       C  0.49467922  0.79608310  0.84179838    -0.18100
C1250       C  0.51200885  0.81833048  0.83563867    -0.20300
C1251       C  0.53450835  0.81511677  0.81771229     0.20400
C1252       C  0.53890007  0.78928640  0.80519065    -0.03200
C1253       C  0.52151845  0.76673212  0.81156694    -0.06300
C1254       C  0.49953391  0.77006685  0.83027520     0.20700
C1255       C  0.52711890  0.74052183  0.80042582     0.18800
C1256       C  0.54910756  0.73742142  0.78190747    -0.17700
C1257       C  0.56595823  0.75978766  0.77522741    -0.20000
C1258       C  0.56136560  0.78563645  0.78720504     0.20300
C1259       C  0.57954496  0.80752534  0.78229424    -0.33000
C1260       C  0.57627209  0.83315906  0.79559100     0.01000
C1261       C  0.55322068  0.83688876  0.81288959    -0.24300
C1262       C  0.48404571  0.74700333  0.83856759    -0.28900
C1263       C  0.49080801  0.72051724  0.82908962     0.06700
C1264       C  0.51187935  0.71759656  0.80941375    -0.27600
H1265       H  0.47793150  0.79905158  0.85624122     0.11400
H1266       H  0.50814091  0.83794971  0.84540457     0.12500
H1267       H  0.55370690  0.71751199  0.77307614     0.11600
H1268       H  0.58310820  0.75666128  0.76130117     0.10800
H1269       H  0.59699403  0.80410312  0.76880076     0.16200
H1270       H  0.55030587  0.85637276  0.82324639     0.12100
H1271       H  0.46852581  0.74926495  0.85446714     0.15000
H1272       H  0.51776137  0.69718987  0.80270020     0.14800
C1273       C  0.72859242  0.99184083  0.92955019    -0.18100
C1274       C  0.71158988  0.97512787  0.91349632    -0.20300
C1275       C  0.71177441  0.97752419  0.88480712     0.20400
C1276       C  0.72940820  0.99692407  0.87223049    -0.03200
C1277       C  0.74650127  0.01383501  0.88842883    -0.06300
C1278       C  0.74604407  0.01126445  0.91721405     0.20700
C1279       C  0.76390941  0.03339694  0.87581727     0.18800
C1280       C  0.76428721  0.03566575  0.84713315    -0.17700
C1281       C  0.74743357  0.01885580  0.83109541    -0.20000
C1282       C  0.72988204  0.99955652  0.84347103     0.20300
C1283       C  0.71269561  0.98298256  0.82752860    -0.33000
C1284       C  0.69478130  0.96369806  0.83976429     0.01000
C1285       C  0.69456154  0.96100164  0.86850022    -0.24300
C1286       C  0.76291301  0.02825559  0.93317536    -0.28900
C1287       C  0.78015794  0.04802861  0.92083476     0.06700
C1288       C  0.78053510  0.05042609  0.89208404    -0.27600
H1289       H  0.72801317  0.98963083  0.95168177     0.11400
H1290       H  0.69825062  0.96038509  0.92352050     0.12500
H1291       H  0.77754565  0.05048875  0.83711310     0.11600
H1292       H  0.74802923  0.02105421  0.80896249     0.10800
H1293       H  0.71326769  0.98529368  0.80540041     0.16200
H1294       H  0.68096620  0.94623047  0.87815521     0.12100
H1295       H  0.76231049  0.02626537  0.95533460     0.15000
H1296       H  0.79378657  0.06546645  0.88235572     0.14800
C1297       C  0.69506731  0.76470120  0.90596966    -0.18100
C1298       C  0.68180772  0.78773732  0.89502451    -0.20300
C1299       C  0.69278480  0.80132429  0.87205092     0.20400
C1300       C  0.71795635  0.79211497  0.86067072    -0.03200
C1301       C  0.73126591  0.76883732  0.87162050    -0.06300
C1302       C  0.71952348  0.75476450  0.89408696     0.20700
C1303       C  0.75570781  0.75899017  0.85929976     0.18800
C1304       C  0.76728790  0.77309530  0.83701211    -0.17700
C1305       C  0.75419225  0.79614573  0.82624219    -0.20000
C1306       C  0.72926278  0.80541531  0.83756235     0.20300
C1307       C  0.71484459  0.82692773  0.82528680    -0.33000
C1308       C  0.68896657  0.83526588  0.83540878     0.01000
C1309       C  0.67848660  0.82305140  0.85944125    -0.24300
C1310       C  0.73180374  0.73039266  0.90344914    -0.28900
C1311       C  0.75531377  0.71968792  0.89017914     0.06700
C1312       C  0.76752748  0.73457754  0.86866023    -0.27600
H1313       H  0.68581003  0.75423969  0.92328911     0.11400
H1314       H  0.66258549  0.79452527  0.90414431     0.12500
H1315       H  0.78612006  0.76587163  0.82740854     0.11600
H1316       H  0.76315563  0.80625848  0.80856886     0.10800
H1317       H  0.72326184  0.83643976  0.80699519     0.16200
H1318       H  0.65853352  0.82929410  0.86732267     0.12100
H1319       H  0.72225293  0.71905130  0.92005862     0.15000
H1320       H  0.78582440  0.72666669  0.85854807     0.14800
C1321       C  0.83222097  0.88663385  0.73698204    -0.18100
C1322       C  0.80675219  0.89306073  0.74879323    -0.20300
C1323       C  0.78279200  0.89279971  0.73283004     0.20400
C1324       C  0.78465908  0.88746643  0.70437690    -0.03200
C1325       C  0.81045605  0.88175068  0.69232254    -0.06300
C1326       C  0.83415374  0.88034026  0.70893262     0.20700
C1327       C  0.81218875  0.87538896  0.66408060     0.18800
C1328       C  0.78832695  0.87596792  0.64794839    -0.17700
C1329       C  0.76269225  0.88128507  0.65997712    -0.20000
C1330       C  0.76058659  0.88634330  0.68825531     0.20300
C1331       C  0.73480332  0.88931437  0.70089918    -0.33000
C1332       C  0.73293897  0.89408428  0.72923056     0.01000
C1333       C  0.75689281  0.89667129  0.74497509    -0.24300
C1334       C  0.85872679  0.87017379  0.69776282    -0.28900
C1335       C  0.85977618  0.86145151  0.67030885     0.06700
C1336       C  0.83716979  0.86599440  0.65307141    -0.27600
H1337       H  0.85024597  0.88570430  0.74995301     0.11400
H1338       H  0.80564900  0.89720073  0.77063213     0.12500
H1339       H  0.78932070  0.87111784  0.62626388     0.11600
H1340       H  0.74442003  0.88064982  0.64730103     0.10800
H1341       H  0.71615869  0.88784226  0.68880222     0.16200
H1342       H  0.75523830  0.90051845  0.76685367     0.12100
H1343       H  0.87608945  0.86618609  0.71108247     0.15000
H1344       H  0.83783960  0.85860206  0.63206740     0.14800
C1345       C  0.83056566  0.82688102  0.51019292    -0.18100
C1346       C  0.80829450  0.83308604  0.49293935    -0.20300
C1347       C  0.78110206  0.82686017  0.50082362     0.20400
C1348       C  0.77650031  0.81352231  0.52611054    -0.03200
C1349       C  0.79905471  0.80710689  0.54348926    -0.06300
C1350       C  0.82623794  0.81420260  0.53574783     0.20700
C1351       C  0.79424602  0.79450634  0.56905431     0.18800
C1352       C  0.76715243  0.78776947  0.57677796    -0.17700
C1353       C  0.74490624  0.79441926  0.55983049    -0.20000
C1354       C  0.74927138  0.80771661  0.53465333     0.20300
C1355       C  0.72685923  0.81659206  0.51864708    -0.33000
C1356       C  0.73113551  0.83077668  0.49383292     0.01000
C1357       C  0.75841381  0.83503616  0.48465398    -0.24300
C1358       C  0.84837943  0.80938737  0.55404502    -0.28900
C1359       C  0.84363050  0.79769466  0.58014809     0.06700
C1360       C  0.81639798  0.78973454  0.58694490    -0.27600
H1361       H  0.85118147  0.83248629  0.50373397     0.11400
H1362       H  0.81232402  0.84337664  0.47364200     0.12500
H1363       H  0.76307512  0.77797235  0.59631989     0.11600
H1364       H  0.72420242  0.78966704  0.56671264     0.10800
H1365       H  0.70601331  0.81376219  0.52619187     0.16200
H1366       H  0.76196008  0.84670148  0.46604237     0.12100
H1367       H  0.86903019  0.81570980  0.54840279     0.15000
H1368       H  0.81216506  0.78050335  0.60674120     0.14800
C1369       C  0.49359624  0.80532458  0.44230401    -0.18100
C1370       C  0.51567070  0.82276411  0.44826004    -0.20300
C1371       C  0.54292302  0.81366723  0.44515551     0.20400
C1372       C  0.54803102  0.78642020  0.43691150    -0.03200
C1373       C  0.52562367  0.76864805  0.43105592    -0.06300
C1374       C  0.49833826  0.77840225  0.43323789     0.20700
C1375       C  0.53052613  0.74164424  0.42173650     0.18800
C1376       C  0.55787479  0.73246161  0.41926863    -0.17700
C1377       C  0.58006453  0.75006871  0.42508699    -0.20000
C1378       C  0.57544588  0.77729190  0.43349277     0.20300
C1379       C  0.59759419  0.79579127  0.43761102    -0.33000
C1380       C  0.59256104  0.82338395  0.44491882     0.01000
C1381       C  0.56503612  0.83172995  0.44924753    -0.24300
C1382       C  0.47632751  0.76173547  0.42474114    -0.28900
C1383       C  0.48097972  0.73533517  0.41397102     0.06700
C1384       C  0.50811365  0.72499829  0.41351772    -0.27600
H1385       H  0.47279799  0.81313442  0.44413171     0.11400
H1386       H  0.51140645  0.84364858  0.45464153     0.12500
H1387       H  0.56214524  0.71182272  0.41216465     0.11600
H1388       H  0.60088275  0.74254041  0.42241516     0.10800
H1389       H  0.61856158  0.78898073  0.43420003     0.16200
H1390       H  0.56060142  0.85274032  0.45509291     0.12100
H1391       H  0.45561037  0.77000074  0.42475172     0.15000
H1392       H  0.51200467  0.70498807  0.40457129     0.14800
C1393       C  0.81351331  0.98933144  0.41635650    -0.18100
C1394       C  0.79673102  0.97080393  0.43067003    -0.20300
C1395       C  0.77871808  0.95329230  0.41647630     0.20400
C1396       C  0.77821813  0.95389913  0.38755208    -0.03200
C1397       C  0.79519564  0.97253684  0.37311477    -0.06300
C1398       C  0.81263340  0.99062824  0.38759316     0.20700
C1399       C  0.79415413  0.97353173  0.34422349     0.18800
C1400       C  0.77666697  0.95558715  0.32998732    -0.17700
C1401       C  0.75979271  0.93722741  0.34427406    -0.20000
C1402       C  0.76015099  0.93647394  0.37303924     0.20300
C1403       C  0.74203100  0.91930686  0.38749677    -0.33000
C1404       C  0.74146799  0.91941459  0.41636179     0.01000
C1405       C  0.76049506  0.93593342  0.43068559    -0.24300
C1406       C  0.82839979  0.01004202  0.37308486    -0.28900
C1407       C  0.82700891  0.01153685  0.34425069     0.06700
C1408       C  0.81012177  0.99284247  0.33003677    -0.27600
H1409       H  0.82687910  0.00294713  0.42781998     0.11400
H1410       H  0.79745664  0.97054435  0.45288875     0.12500
H1411       H  0.77570194  0.95605967  0.30778243     0.11600
H1412       H  0.74610171  0.92393898  0.33282566     0.10800
H1413       H  0.72764703  0.90662021  0.37620209     0.16200
H1414       H  0.76037863  0.93618856  0.45293384     0.12100
H1415       H  0.84143030  0.02421540  0.38427954     0.15000
H1416       H  0.80882726  0.99370250  0.30785806     0.14800
C1417       C  0.50773463  0.89857095  0.37686428    -0.18100
C1418       C  0.53355178  0.88690301  0.38179359    -0.20300
C1419       C  0.55775244  0.90155623  0.37582746     0.20400
C1420       C  0.55594801  0.92769723  0.36356305    -0.03200
C1421       C  0.52985107  0.93923082  0.35802435    -0.06300
C1422       C  0.50566151  0.92492796  0.36552803     0.20700
C1423       C  0.52798354  0.96558209  0.34620697     0.18800
C1424       C  0.55222109  0.97988437  0.33952867    -0.17700
C1425       C  0.57804672  0.96886684  0.34591981    -0.20000
C1426       C  0.58011711  0.94305504  0.35850105     0.20300
C1427       C  0.60558320  0.93327064  0.36808494    -0.33000
C1428       C  0.60720854  0.90795223  0.38180672     0.01000
C1429       C  0.58351285  0.89148625  0.38398953    -0.24300
C1430       C  0.47989312  0.93755788  0.36237160    -0.28900
C1431       C  0.47790791  0.96397646  0.35108061     0.06700
C1432       C  0.50196152  0.97753266  0.34224468    -0.27600
H1433       H  0.48937687  0.88721047  0.38250715     0.11400
H1434       H  0.53457243  0.86685662  0.39130465     0.12500
H1435       H  0.55118703  0.00006771  0.33030791     0.11600
H1436       H  0.59636765  0.98085411  0.34167825     0.10800
H1437       H  0.62369231  0.94625049  0.36688047     0.16200
H1438       H  0.58454430  0.87229733  0.39514959     0.12100
H1439       H  0.46133805  0.92685603  0.36868346     0.15000
H1440       H  0.50046105  0.99786591  0.33338437     0.14800
C1441       C  0.59971163  0.85640279  0.63225619    -0.18100
C1442       C  0.59968752  0.85603118  0.60361081    -0.20300
C1443       C  0.60609413  0.87987760  0.58887845     0.20400
C1444       C  0.61023380  0.90490875  0.60301128    -0.03200
C1445       C  0.61022687  0.90527818  0.63180805    -0.06300
C1446       C  0.60611584  0.88064267  0.64643183     0.20700
C1447       C  0.61687023  0.92974368  0.64585347     0.18800
C1448       C  0.62108700  0.95411257  0.63116552    -0.17700
C1449       C  0.62120469  0.95374354  0.60255811    -0.20000
C1450       C  0.61703032  0.92901297  0.58845676     0.20300
C1451       C  0.62205442  0.92737288  0.56037022    -0.33000
C1452       C  0.62055300  0.90202333  0.54695791     0.01000
C1453       C  0.61093564  0.87869447  0.56060014    -0.24300
C1454       C  0.61091875  0.88015206  0.67466527    -0.28900
C1455       C  0.62049986  0.90379032  0.68811916     0.06700
C1456       C  0.62163197  0.92888121  0.67403619    -0.27600
H1457       H  0.59620550  0.83743505  0.64327145     0.11400
H1458       H  0.59616549  0.83677007  0.59302450     0.12500
H1459       H  0.62586070  0.97309068  0.64175088     0.11600
H1460       H  0.62609421  0.97243067  0.59152242     0.10800
H1461       H  0.62915603  0.94534956  0.54926708     0.16200
H1462       H  0.60969601  0.85927234  0.54976185     0.12100
H1463       H  0.60953800  0.86085261  0.68558710     0.15000
H1464       H  0.62829016  0.94734420  0.68455916     0.14800
C1465       C  0.48486042  0.28580940  0.03294083    -0.18100
C1466       C  0.50551835  0.26705525  0.03990136    -0.20300
C1467       C  0.50090691  0.24734657  0.06038833     0.20400
C1468       C  0.47462181  0.24561218  0.07286503    -0.03200
C1469       C  0.45377209  0.26468651  0.06593181    -0.06300
C1470       C  0.45922545  0.28530637  0.04641618     0.20700
C1471       C  0.42806370  0.26407316  0.07965179     0.18800
C1472       C  0.42305974  0.24359543  0.09927431    -0.17700
C1473       C  0.44372208  0.22484420  0.10625426    -0.20000
C1474       C  0.46977613  0.22610911  0.09366310     0.20300
C1475       C  0.49165583  0.20979903  0.10307359    -0.33000
C1476       C  0.51846607  0.21303082  0.09238578     0.01000
C1477       C  0.52266074  0.23095974  0.07018254    -0.24300
C1478       C  0.43952475  0.30585367  0.04170848    -0.28900
C1479       C  0.41434469  0.30631329  0.05631727     0.06700
C1480       C  0.40839248  0.28470349  0.07454105    -0.27600
H1481       H  0.48930302  0.30136823  0.01768888     0.11400
H1482       H  0.52545194  0.26863277  0.02996269     0.12500
H1483       H  0.40345538  0.24265372  0.10993194     0.11600
H1484       H  0.43961952  0.20994392  0.12222806     0.10800
H1485       H  0.48849529  0.19662355  0.12072253     0.16200
H1486       H  0.54338467  0.23420106  0.06247019     0.12100
H1487       H  0.44423856  0.32211108  0.02726583     0.15000
H1488       H  0.38911123  0.28473466  0.08582353     0.14800
C1489       C  0.67032446  0.14300269  0.00982378    -0.18100
C1490       C  0.69091166  0.13748688  0.99033192    -0.20300
C1491       C  0.71635610  0.15122375  0.99131761     0.20400
C1492       C  0.72071288  0.17149628  0.01147476    -0.03200
C1493       C  0.69988895  0.17706692  0.03117747    -0.06300
C1494       C  0.67473217  0.16240065  0.03068560     0.20700
C1495       C  0.70478253  0.19638402  0.05210592     0.18800
C1496       C  0.72997698  0.21057921  0.05273084    -0.17700
C1497       C  0.75067199  0.20483670  0.03346996    -0.20000
C1498       C  0.74650757  0.18492613  0.01306611     0.20300
C1499       C  0.76836042  0.17655410  0.99583807    -0.33000
C1500       C  0.76480147  0.15466227  0.97737573     0.01000
C1501       C  0.73825820  0.14336028  0.97408172    -0.24300
C1502       C  0.65492195  0.16665019  0.05158406    -0.28900
C1503       C  0.66006965  0.18525826  0.07311950     0.06700
C1504       C  0.68488305  0.20046719  0.07267052    -0.27600
H1505       H  0.65119937  0.13156764  0.00898406     0.11400
H1506       H  0.68725267  0.12178148  0.97500697     0.12500
H1507       H  0.73401418  0.22558208  0.06866439     0.11600
H1508       H  0.77025168  0.21537423  0.03506514     0.10800
H1509       H  0.78884253  0.18477775  0.99910188     0.16200
H1510       H  0.73556929  0.12600369  0.96037818     0.12100
H1511       H  0.63602062  0.15480472  0.05159920     0.15000
H1512       H  0.68919091  0.21508972  0.08889335     0.14800
C1513       C  0.46962319  0.14399682  0.27626991    -0.18100
C1514       C  0.48768984  0.15943579  0.26004396    -0.20300
C1515       C  0.50117705  0.14739378  0.23752142     0.20400
C1516       C  0.49680955  0.11944700  0.23150360    -0.03200
C1517       C  0.47856783  0.10389296  0.24785079    -0.06300
C1518       C  0.46475077  0.11626966  0.27024238     0.20700
C1519       C  0.47399500  0.07603772  0.24162527     0.18800
C1520       C  0.48784320  0.06385096  0.21940451    -0.17700
C1521       C  0.50591767  0.07926654  0.20320972    -0.20000
C1522       C  0.51040201  0.10710981  0.20896911     0.20300
C1523       C  0.52788951  0.12291396  0.19234142    -0.33000
C1524       C  0.53180371  0.15097791  0.19779456     0.01000
C1525       C  0.51862925  0.16293571  0.22068612    -0.24300
C1526       C  0.44629641  0.10072962  0.28615384    -0.28900
C1527       C  0.44158563  0.07294155  0.27999376     0.06700
C1528       C  0.45559937  0.06082105  0.25766349    -0.27600
H1529       H  0.45931852  0.15380226  0.29343475     0.11400
H1530       H  0.49093556  0.18087148  0.26497380     0.12500
H1531       H  0.48457380  0.04241432  0.21445458     0.11600
H1532       H  0.51622008  0.06946219  0.18604055     0.10800
H1533       H  0.53800350  0.11346453  0.17484851     0.16200
H1534       H  0.52169387  0.18447581  0.22530055     0.12100
H1535       H  0.43578634  0.11020425  0.30338901     0.15000
H1536       H  0.45220604  0.03940969  0.25263174     0.14800
C1537       C  0.68484952  0.15010646  0.25868585    -0.18100
C1538       C  0.70882446  0.14262449  0.27250986    -0.20300
C1539       C  0.72704550  0.12357287  0.26082312     0.20400
C1540       C  0.72040765  0.11095219  0.23553788    -0.03200
C1541       C  0.69643492  0.11884175  0.22136017    -0.06300
C1542       C  0.67895420  0.13890759  0.23281517     0.20700
C1543       C  0.69097727  0.10806425  0.19494514     0.18800
C1544       C  0.70867317  0.08819060  0.18380517    -0.17700
C1545       C  0.73217851  0.07994743  0.19811020    -0.20000
C1546       C  0.73853244  0.09166916  0.22365883     0.20300
C1547       C  0.76334691  0.08551972  0.23688430    -0.33000
C1548       C  0.77066363  0.09920690  0.26118057     0.01000
C1549       C  0.75237461  0.11789898  0.27328646    -0.24300
C1550       C  0.65722428  0.14914775  0.21724524    -0.28900
C1551       C  0.65346799  0.14062402  0.18992222     0.06700
C1552       C  0.66930173  0.11898806  0.17933440    -0.27600
H1553       H  0.67153321  0.16554902  0.26768962     0.11400
H1554       H  0.71350306  0.15231380  0.29196968     0.12500
H1555       H  0.70481376  0.07964851  0.16363498     0.11600
H1556       H  0.74590637  0.06511606  0.18874527     0.10800
H1557       H  0.77780384  0.07143192  0.22739728     0.16200
H1558       H  0.75822501  0.12848829  0.29197016     0.12100
H1559       H  0.64487442  0.16585164  0.22539298     0.15000
H1560       H  0.66655809  0.11261247  0.15819304     0.14800
C1561       C  0.61926071  0.32666296  0.26123091    -0.18100
C1562       C  0.62664512  0.34017801  0.28548199    -0.20300
C1563       C  0.63573983  0.32523414  0.30829348     0.20400
C1564       C  0.63689376  0.29629116  0.30679978    -0.03200
C1565       C  0.62945957  0.28264837  0.28232832    -0.06300
C1566       C  0.62081995  0.29796094  0.25937376     0.20700
C1567       C  0.63147267  0.25376250  0.28057029     0.18800
C1568       C  0.64059305  0.23880903  0.30335096    -0.17700
C1569       C  0.64820061  0.25235054  0.32749129    -0.20000
C1570       C  0.64669504  0.28104944  0.32930826     0.20300
C1571       C  0.65649586  0.29487268  0.35253736    -0.33000
C1572       C  0.65678308  0.32368367  0.35353767     0.01000
C1573       C  0.64539068  0.33875763  0.33187733    -0.24300
C1574       C  0.61438086  0.28430949  0.23484235    -0.28900
C1575       C  0.61643389  0.25563930  0.23306348     0.06700
C1576       C  0.62483720  0.24041065  0.25590434    -0.27600
H1577       H  0.61269086  0.33869844  0.24378159     0.11400
H1578       H  0.62578668  0.36238071  0.28619939     0.12500
H1579       H  0.64229021  0.21668440  0.30233499     0.11600
H1580       H  0.65579407  0.24038324  0.34459311     0.10800
H1581       H  0.66597394  0.28332059  0.36900267     0.16200
H1582       H  0.64648232  0.36098125  0.33228150     0.12100
H1583       H  0.60803259  0.29593456  0.21700329     0.15000
H1584       H  0.62657715  0.21829975  0.25428489     0.14800
C1585       C  0.72160839  0.45874282  0.25579294    -0.18100
C1586       C  0.72862502  0.44203233  0.27809005    -0.20300
C1587       C  0.71517525  0.44489888  0.30353337     0.20400
C1588       C  0.69486452  0.46526522  0.30669896    -0.03200
C1589       C  0.68796935  0.48245131  0.28416014    -0.06300
C1590       C  0.70113665  0.47890686  0.25846147     0.20700
C1591       C  0.66707872  0.50231580  0.28700492     0.18800
C1592       C  0.65354084  0.50503927  0.31244407    -0.17700
C1593       C  0.66030890  0.48802730  0.33467225    -0.20000
C1594       C  0.68081803  0.46785727  0.33205337     0.20300
C1595       C  0.68684919  0.44969617  0.35394285    -0.33000
C1596       C  0.70671117  0.42876675  0.35077381     0.01000
C1597       C  0.72107655  0.42710876  0.32547705    -0.24300
C1598       C  0.69259312  0.49447342  0.23555163    -0.28900
C1599       C  0.67124581  0.51389021  0.23794570     0.06700
C1600       C  0.65905953  0.51800270  0.26401268    -0.27600
H1601       H  0.73192278  0.45558611  0.23630135     0.11400
H1602       H  0.74426610  0.42642509  0.27524116     0.12500
H1603       H  0.63729051  0.52005122  0.31503142     0.11600
H1604       H  0.64917390  0.49039615  0.35382688     0.10800
H1605       H  0.67532510  0.45116918  0.37296408     0.16200
H1606       H  0.73638065  0.41120395  0.32241181     0.12100
H1607       H  0.70123287  0.49016891  0.21546376     0.15000
H1608       H  0.64172202  0.53190462  0.26586342     0.14800
C1609       C  0.75988573  0.58405979  0.08696106    -0.18100
C1610       C  0.77897721  0.58979075  0.06605375    -0.20300
C1611       C  0.77645107  0.57755290  0.04004761     0.20400
C1612       C  0.75514658  0.55845931  0.03542509    -0.03200
C1613       C  0.73582023  0.55269429  0.05657320    -0.06300
C1614       C  0.73785278  0.56595954  0.08232574     0.20700
C1615       C  0.71370426  0.53471116  0.05145760     0.18800
C1616       C  0.71157673  0.52191561  0.02568609    -0.17700
C1617       C  0.73050116  0.52781362  0.00472536    -0.20000
C1618       C  0.75205963  0.54649170  0.00915057     0.20300
C1619       C  0.76911560  0.55507703  0.98726654    -0.33000
C1620       C  0.78896903  0.57571406  0.99126428     0.01000
C1621       C  0.79339503  0.58576808  0.01803703    -0.24300
C1622       C  0.71722426  0.56182210  0.10248312    -0.28900
C1623       C  0.69438876  0.54477083  0.09709523     0.06700
C1624       C  0.69340399  0.53072674  0.07170378    -0.27600
H1625       H  0.76193344  0.59440033  0.10654531     0.11400
H1626       H  0.79522026  0.60452728  0.06996747     0.12500
H1627       H  0.69473486  0.50795833  0.02144631     0.11600
H1628       H  0.72775189  0.51839069  0.98476629     0.10800
H1629       H  0.76493740  0.54791994  0.96661396     0.16200
H1630       H  0.80809676  0.60225488  0.02109106     0.12100
H1631       H  0.71831819  0.57281397  0.12179803     0.15000
H1632       H  0.67617038  0.51732540  0.06718971     0.14800
C1633       C  0.55666780  0.65809406  0.24420235    -0.18100
C1634       C  0.53974636  0.67256443  0.26248977    -0.20300
C1635       C  0.52608890  0.65885962  0.28391967     0.20400
C1636       C  0.52979020  0.63038421  0.28721542    -0.03200
C1637       C  0.54693423  0.61583821  0.26887795    -0.06300
C1638       C  0.56026412  0.62968237  0.24708781     0.20700
C1639       C  0.55027652  0.58733264  0.27206781     0.18800
C1640       C  0.53684137  0.57361940  0.29358452    -0.17700
C1641       C  0.51969841  0.58798034  0.31159965    -0.20000
C1642       C  0.51588045  0.61629316  0.30846474     0.20300
C1643       C  0.49785985  0.63059455  0.32580177    -0.33000
C1644       C  0.49361341  0.65886227  0.32232261     0.01000
C1645       C  0.50822401  0.67296024  0.30165464    -0.24300
C1646       C  0.57643754  0.61475404  0.22829328    -0.28900
C1647       C  0.57927019  0.58617373  0.23106983     0.06700
C1648       C  0.56650574  0.57282465  0.25336219    -0.27600
H1649       H  0.56671585  0.66907419  0.22764806     0.11400
H1650       H  0.53706715  0.69444766  0.25965924     0.12500
H1651       H  0.53928036  0.55169130  0.29624296     0.11600
H1652       H  0.50920142  0.57689025  0.32781703     0.10800
H1653       H  0.48669905  0.61958999  0.34165365     0.16200
H1654       H  0.50484602  0.69472764  0.29860920     0.12100
H1655       H  0.58622573  0.62523147  0.21125031     0.15000
H1656       H  0.56872417  0.55085646  0.25597481     0.14800
C1657       C  0.49952458  0.61041607  0.04913909    -0.18100
C1658       C  0.51365110  0.60341954  0.07308430    -0.20300
C1659       C  0.54210385  0.60810326  0.07524394     0.20400
C1660       C  0.55633392  0.62093880  0.05351360    -0.03200
C1661       C  0.54197730  0.62825822  0.02936362    -0.06300
C1662       C  0.51354769  0.62237222  0.02695727     0.20700
C1663       C  0.55631670  0.64019130  0.00715242     0.18800
C1664       C  0.58471696  0.64520505  0.00950538    -0.17700
C1665       C  0.59900157  0.63754578  0.03325039    -0.20000
C1666       C  0.58513542  0.62497535  0.05525855     0.20300
C1667       C  0.59972361  0.61462370  0.07804954    -0.33000
C1668       C  0.58575149  0.60028061  0.09894744     0.01000
C1669       C  0.55682125  0.59833943  0.09790315    -0.24300
C1670       C  0.49992091  0.62746010  0.00205626    -0.28900
C1671       C  0.51424268  0.63881859  0.97975218     0.06700
C1672       C  0.54223457  0.64575183  0.98260720    -0.27600
H1673       H  0.47773027  0.60585922  0.04772819     0.11400
H1674       H  0.50246018  0.59349814  0.08960189     0.12500
H1675       H  0.59606471  0.65432269  0.99262926     0.11600
H1676       H  0.62105158  0.64083914  0.03411260     0.10800
H1677       H  0.62203426  0.61548700  0.07825951     0.16200
H1678       H  0.54602583  0.58678082  0.11363382     0.12100
H1679       H  0.47841443  0.62195377  0.99974635     0.15000
H1680       H  0.55335662  0.65416281  0.96518970     0.14800
C1681       C  0.56517261  0.38560266  0.12445192    -0.18100
C1682       C  0.56321381  0.35730780  0.12109058    -0.20300
C1683       C  0.58699287  0.34110289  0.12199830     0.20400
C1684       C  0.61313649  0.35348757  0.12504604    -0.03200
C1685       C  0.61508983  0.38190854  0.12862986    -0.06300
C1686       C  0.59088948  0.39785711  0.12883214     0.20700
C1687       C  0.64108668  0.39423179  0.13319356     0.18800
C1688       C  0.66490969  0.37807313  0.13328262    -0.17700
C1689       C  0.66295223  0.34974090  0.12974977    -0.20000
C1690       C  0.63715092  0.33731365  0.12613262     0.20300
C1691       C  0.63471092  0.30887173  0.12570712    -0.33000
C1692       C  0.60854974  0.29663854  0.12544639     0.01000
C1693       C  0.58490712  0.31263207  0.12201871    -0.24300
C1694       C  0.59277884  0.42569840  0.13428345    -0.28900
C1695       C  0.61834584  0.43766626  0.13959620     0.06700
C1696       C  0.64258130  0.42236296  0.13843480    -0.27600
H1697       H  0.54650880  0.39781982  0.12439606     0.11400
H1698       H  0.54309377  0.34802534  0.11868159     0.12500
H1699       H  0.68493478  0.38725276  0.13672703     0.11600
H1700       H  0.68150805  0.33745920  0.13069481     0.10800
H1701       H  0.65296868  0.29639169  0.12843191     0.16200
H1702       H  0.56478179  0.30297737  0.12155405     0.12100
H1703       H  0.57429090  0.43818746  0.13464049     0.15000
H1704       H  0.66222423  0.43215117  0.14244799     0.14800
C1705       C  0.46019009  0.50611498  0.11083851    -0.18100
C1706       C  0.43644053  0.49188465  0.10296255    -0.20300
C1707       C  0.43330984  0.46393516  0.10924341     0.20400
C1708       C  0.45367353  0.45045491  0.12468146    -0.03200
C1709       C  0.47756934  0.46489283  0.13281983    -0.06300
C1710       C  0.48113908  0.49269726  0.12527878     0.20700
C1711       C  0.49843079  0.45116418  0.14739937     0.18800
C1712       C  0.49503017  0.42337505  0.15416629    -0.17700
C1713       C  0.47155723  0.40898175  0.14573637    -0.20000
C1714       C  0.45091524  0.42218247  0.13063329     0.20300
C1715       C  0.42859585  0.40725514  0.11975890    -0.33000
C1716       C  0.40938300  0.42024809  0.10269998     0.01000
C1717       C  0.41118552  0.44880716  0.09865776    -0.24300
C1718       C  0.50601417  0.50619132  0.13136365    -0.28900
C1719       C  0.52696983  0.49232072  0.14534347     0.06700
C1720       C  0.52278057  0.46516404  0.15399547    -0.27600
H1721       H  0.46246746  0.52746036  0.10503554     0.11400
H1722       H  0.42093259  0.50251005  0.09114560     0.12500
H1723       H  0.51090505  0.41255205  0.16531658     0.11600
H1724       H  0.46987408  0.38733260  0.15045949     0.10800
H1725       H  0.42764392  0.38519614  0.12240982     0.16200
H1726       H  0.39656243  0.45880626  0.08522685     0.12100
H1727       H  0.50938417  0.52714571  0.12466581     0.15000
H1728       H  0.53901312  0.45459813  0.16490036     0.14800
C1729       C  0.49903654  0.32076430  0.64825195    -0.18100
C1730       C  0.51863708  0.30027609  0.64312482    -0.20300
C1731       C  0.51909955  0.27622750  0.65898696     0.20400
C1732       C  0.50043983  0.27331270  0.68099031    -0.03200
C1733       C  0.48061647  0.29405423  0.68617154    -0.06300
C1734       C  0.47952448  0.31765292  0.66937043     0.20700
C1735       C  0.46104363  0.29049805  0.70727711     0.18800
C1736       C  0.46212773  0.26687407  0.72372305    -0.17700
C1737       C  0.48153204  0.24625525  0.71842325    -0.20000
C1738       C  0.50037588  0.24890116  0.69667190     0.20300
C1739       C  0.51747185  0.22675621  0.68890713    -0.33000
C1740       C  0.53438001  0.22874393  0.66551688     0.01000
C1741       C  0.53626808  0.25415599  0.65177863    -0.24300
C1742       C  0.45831293  0.33709868  0.67324625    -0.28900
C1743       C  0.43791281  0.33309239  0.69351645     0.06700
C1744       C  0.44002078  0.30999935  0.71087388    -0.27600
H1745       H  0.49866509  0.33871628  0.63517878     0.11400
H1746       H  0.53283427  0.30282595  0.62611022     0.12500
H1747       H  0.44734562  0.26390777  0.74016933     0.11600
H1748       H  0.48117622  0.22781158  0.73078226     0.10800
H1749       H  0.51536470  0.20715229  0.69916348     0.16200
H1750       H  0.54890993  0.25565841  0.63343004     0.12100
H1751       H  0.45702877  0.35468914  0.65973704     0.15000
H1752       H  0.42471697  0.30668263  0.72678036     0.14800
C1753       C  0.53963730  0.99452667  0.72472595    -0.18100
C1754       C  0.53395374  0.01586802  0.70645767    -0.20300
C1755       C  0.54785449  0.04107877  0.70852695     0.20400
C1756       C  0.56676274  0.04531569  0.72991455    -0.03200
C1757       C  0.57212348  0.02385610  0.74876291    -0.06300
C1758       C  0.55906426  0.99809086  0.74565249     0.20700
C1759       C  0.59192832  0.02755392  0.76948652     0.18800
C1760       C  0.60534868  0.05302541  0.77187386    -0.17700
C1761       C  0.60015773  0.07419835  0.75310830    -0.20000
C1762       C  0.58134457  0.07040977  0.73160824     0.20300
C1763       C  0.57773871  0.09067641  0.71114761    -0.33000
C1764       C  0.55949770  0.08618190  0.68913925     0.01000
C1765       C  0.54403821  0.06155136  0.68875633    -0.24300
C1766       C  0.56738941  0.97571640  0.76186567    -0.28900
C1767       C  0.58879052  0.97864076  0.78097176     0.06700
C1768       C  0.59971699  0.00504904  0.78579906    -0.27600
H1769       H  0.52942286  0.97494356  0.72196202     0.11400
H1770       H  0.51933190  0.01231473  0.69009096     0.12500
H1771       H  0.62065480  0.05624926  0.78767167     0.11600
H1772       H  0.61145584  0.09328251  0.75497137     0.10800
H1773       H  0.58973479  0.10941824  0.71187753     0.16200
H1774       H  0.52980489  0.05751577  0.67215293     0.12100
H1775       H  0.55958546  0.95535970  0.75730497     0.15000
H1776       H  0.61689869  0.00727811  0.79978392     0.14800
C1777       C  0.58308203  0.25521892  0.49833498    -0.18100
C1778       C  0.59717189  0.27486116  0.48272377    -0.20300
C1779       C  0.62260212  0.28523743  0.49158172     0.20400
C1780       C  0.63385816  0.27573278  0.51651892    -0.03200
C1781       C  0.61966813  0.25589553  0.53223495    -0.06300
C1782       C  0.59417640  0.24558298  0.52306912     0.20700
C1783       C  0.63106875  0.24631430  0.55703998     0.18800
C1784       C  0.65647202  0.25666702  0.56595218    -0.17700
C1785       C  0.67057461  0.27622107  0.55034806    -0.20000
C1786       C  0.65947526  0.28576866  0.52560410     0.20300
C1787       C  0.67390648  0.30468151  0.50947781    -0.33000
C1788       C  0.66328171  0.31371406  0.48420997     0.01000
C1789       C  0.63730879  0.30437838  0.47564355    -0.24300
C1790       C  0.58018387  0.22590843  0.53883685    -0.28900
C1791       C  0.59129091  0.21637371  0.56374156     0.06700
C1792       C  0.61685534  0.22664197  0.57257478    -0.27600
H1793       H  0.56349866  0.24750017  0.49100838     0.11400
H1794       H  0.58825063  0.28181610  0.46363528     0.12500
H1795       H  0.66549085  0.24956327  0.58495299     0.11600
H1796       H  0.69027287  0.28375368  0.55754912     0.10800
H1797       H  0.69388460  0.31189350  0.51630413     0.16200
H1798       H  0.62916841  0.31101448  0.45608173     0.12100
H1799       H  0.56048648  0.21821655  0.53177211     0.15000
H1800       H  0.62561243  0.21957236  0.59172108     0.14800
C1801       C  0.61634960  0.04885971  0.48792377    -0.18100
C1802       C  0.60891709  0.07130378  0.50423609    -0.20300
C1803       C  0.61912733  0.07392276  0.53102534     0.20400
C1804       C  0.63785021  0.05439131  0.54118015    -0.03200
C1805       C  0.64579539  0.03201453  0.52447706    -0.06300
C1806       C  0.63438572  0.02885657  0.49799677     0.20700
C1807       C  0.66386338  0.01198285  0.53486506     0.18800
C1808       C  0.67404399  0.01462918  0.56167698    -0.17700
C1809       C  0.66560746  0.03642485  0.57846564    -0.20000
C1810       C  0.64720771  0.05622652  0.56858760     0.20300
C1811       C  0.63642887  0.07660697  0.58611848    -0.33000
C1812       C  0.61681392  0.09524385  0.57629911     0.01000
C1813       C  0.60926933  0.09453059  0.54848829    -0.24300
C1814       C  0.63998594  0.00502681  0.48271744    -0.28900
C1815       C  0.65747529  0.98477254  0.49325760     0.06700
C1816       C  0.67012279  0.98883993  0.51887537    -0.27600
H1817       H  0.60744827  0.04680035  0.46767056     0.11400
H1818       H  0.59436401  0.08607560  0.49626205     0.12500
H1819       H  0.68779883  0.99930405  0.57000429     0.11600
H1820       H  0.67296926  0.03742361  0.59939634     0.10800
H1821       H  0.64150328  0.07655143  0.60775754     0.16200
H1822       H  0.59343107  0.10837548  0.54120756     0.12100
H1823       H  0.62995074  0.00169606  0.46315724     0.15000
H1824       H  0.68303996  0.97284916  0.52734598     0.14800
C1825       C  0.44142818  0.13910786  0.48161564    -0.18100
C1826       C  0.42825516  0.12915102  0.45808213    -0.20300
C1827       C  0.43947150  0.10709277  0.44325224     0.20400
C1828       C  0.46473037  0.09558416  0.45180420    -0.03200
C1829       C  0.47789036  0.10546244  0.47565078    -0.06300
C1830       C  0.46599098  0.12709802  0.49081692     0.20700
C1831       C  0.50241103  0.09298332  0.48484879     0.18800
C1832       C  0.51413622  0.07152404  0.46960195    -0.17700
C1833       C  0.50119913  0.06184718  0.44593408    -0.20000
C1834       C  0.47627558  0.07339778  0.43721999     0.20300
C1835       C  0.46199932  0.06212390  0.41505457    -0.33000
C1836       C  0.43590161  0.07212308  0.40755436     0.01000
C1837       C  0.42523311  0.09537140  0.42098228    -0.24300
C1838       C  0.47835938  0.13568510  0.51538259    -0.28900
C1839       C  0.50217211  0.12253262  0.52525798     0.06700
C1840       C  0.51432917  0.10154714  0.50957020    -0.27600
H1841       H  0.43205381  0.15579671  0.49298783     0.11400
H1842       H  0.40895685  0.13830989  0.45184096     0.12500
H1843       H  0.53302086  0.06184422  0.47629244     0.11600
H1844       H  0.51030753  0.04480874  0.43485650     0.10800
H1845       H  0.47053409  0.04440488  0.40456836     0.16200
H1846       H  0.40510960  0.10310947  0.41538395     0.12100
H1847       H  0.46878230  0.15183915  0.52737357     0.15000
H1848       H  0.53278571  0.09147675  0.51687978     0.14800
C1849       C  0.24235075  0.08129030  0.45136767    -0.18100
C1850       C  0.25890703  0.07493326  0.42848295    -0.20300
C1851       C  0.28096079  0.05642605  0.43078278     0.20400
C1852       C  0.28541319  0.04338263  0.45629451    -0.03200
C1853       C  0.26880934  0.04999395  0.47948623    -0.06300
C1854       C  0.24749091  0.06943212  0.47713527     0.20700
C1855       C  0.27460874  0.03831358  0.50534787     0.18800
C1856       C  0.29582497  0.01886038  0.50748585    -0.17700
C1857       C  0.31179574  0.01203405  0.48445831    -0.20000
C1858       C  0.30726682  0.02465320  0.45901140     0.20300
C1859       C  0.32494302  0.01978002  0.43666372    -0.33000
C1860       C  0.32199062  0.03377560  0.41143029     0.01000
C1861       C  0.29927084  0.05160556  0.40846811    -0.24300
C1862       C  0.23297250  0.07793309  0.50085764    -0.28900
C1863       C  0.23991807  0.06783171  0.52704765     0.06700
C1864       C  0.26037842  0.04747899  0.52900534    -0.27600
H1865       H  0.22597964  0.09624913  0.44906642     0.11400
H1866       H  0.25489279  0.08501977  0.40918433     0.12500
H1867       H  0.30043803  0.00962213  0.52684749     0.11600
H1868       H  0.32857824  0.99730272  0.48690527     0.10800
H1869       H  0.34204689  0.00558537  0.43949259     0.16200
H1870       H  0.29643620  0.06242404  0.38935561     0.12100
H1871       H  0.21786392  0.09428854  0.49928150     0.15000
H1872       H  0.26636912  0.04022256  0.54889621     0.14800
C1873       C  0.20727675  0.04233044  0.77078218    -0.18100
C1874       C  0.21421862  0.05938042  0.74870219    -0.20300
C1875       C  0.20931040  0.05094935  0.72156907     0.20400
C1876       C  0.19859949  0.02453147  0.71659305    -0.03200
C1877       C  0.19191042  0.00709996  0.73896498    -0.06300
C1878       C  0.19553452  0.01640359  0.76617211     0.20700
C1879       C  0.18009931  0.98106408  0.73412451     0.18800
C1880       C  0.17608676  0.97234685  0.70692656    -0.17700
C1881       C  0.18259551  0.98964176  0.68481482    -0.20000
C1882       C  0.19333156  0.01603619  0.68937347     0.20300
C1883       C  0.19773247  0.03445641  0.66737242    -0.33000
C1884       C  0.20719419  0.06139817  0.67226600     0.01000
C1885       C  0.21376320  0.06897610  0.69949795    -0.24300
C1886       C  0.18564865  0.00048013  0.78818968    -0.28900
C1887       C  0.17237807  0.97519790  0.78351509     0.06700
C1888       C  0.17079526  0.96507598  0.75647035    -0.27600
H1889       H  0.21036191  0.04977367  0.79151786     0.11400
H1890       H  0.22259165  0.07955968  0.75289706     0.12500
H1891       H  0.16707977  0.95243741  0.70274575     0.11600
H1892       H  0.17852592  0.98261161  0.66412124     0.10800
H1893       H  0.19268008  0.02819405  0.64664949     0.16200
H1894       H  0.22135641  0.08945317  0.70378747     0.12100
H1895       H  0.18646722  0.00864593  0.80889849     0.15000
H1896       H  0.15992555  0.94602229  0.75262266     0.14800
C1897       C  0.18035919  0.20220876  0.46569697    -0.18100
C1898       C  0.16674107  0.22170522  0.44974733    -0.20300
C1899       C  0.14017132  0.23046824  0.45692921     0.20400
C1900       C  0.12701258  0.21914489  0.48020815    -0.03200
C1901       C  0.14067839  0.19931644  0.49620212    -0.06300
C1902       C  0.16759322  0.19108357  0.48904656     0.20700
C1903       C  0.12764379  0.18816617  0.51962676     0.18800
C1904       C  0.10091032  0.19665028  0.52660118    -0.17700
C1905       C  0.08738126  0.21635223  0.51078146    -0.20000
C1906       C  0.10035114  0.22784880  0.48769062     0.20300
C1907       C  0.08713374  0.24791487  0.47197775    -0.33000
C1908       C  0.10007412  0.25931540  0.44866015     0.01000
C1909       C  0.12659399  0.25038436  0.44126915    -0.24300
C1910       C  0.18161951  0.17249392  0.50578878    -0.28900
C1911       C  0.16919922  0.16203820  0.52973082     0.06700
C1912       C  0.14190158  0.16941195  0.53611410    -0.27600
H1913       H  0.20101318  0.19604197  0.45992785     0.11400
H1914       H  0.17710831  0.23012261  0.43191048     0.12500
H1915       H  0.09058725  0.18830208  0.54450455     0.11600
H1916       H  0.06684738  0.22274430  0.51671802     0.10800
H1917       H  0.06657430  0.25439347  0.47777972     0.16200
H1918       H  0.13669768  0.25892208  0.42333176     0.12100
H1919       H  0.20255823  0.16677417  0.50056474     0.15000
H1920       H  0.13218711  0.16156587  0.55458834     0.14800
C1921       C  0.12290474  0.13170497  0.72906301    -0.18100
C1922       C  0.11649810  0.14394157  0.75430970    -0.20300
C1923       C  0.11346832  0.17251128  0.75638065     0.20400
C1924       C  0.11582969  0.18882746  0.73257403    -0.03200
C1925       C  0.12238218  0.17649874  0.70714548    -0.06300
C1926       C  0.12646880  0.14784262  0.70547634     0.20700
C1927       C  0.12649067  0.19306063  0.68377134     0.18800
C1928       C  0.12281909  0.22154756  0.68566932    -0.17700
C1929       C  0.11592002  0.23371296  0.71074966    -0.20000
C1930       C  0.11280888  0.21760915  0.73437276     0.20300
C1931       C  0.10752635  0.22985285  0.75989361    -0.33000
C1932       C  0.10609856  0.21379265  0.78366555     0.01000
C1933       C  0.10887801  0.18517701  0.78189230    -0.24300
C1934       C  0.13624013  0.13621027  0.68087767    -0.28900
C1935       C  0.14277802  0.15308652  0.65842823     0.06700
C1936       C  0.13637498  0.18116995  0.65950490    -0.27600
H1937       H  0.12597324  0.10970883  0.72817758     0.11400
H1938       H  0.11455102  0.13111297  0.77235086     0.12500
H1939       H  0.12601143  0.23451363  0.66789865     0.11600
H1940       H  0.11371239  0.25580832  0.71181498     0.10800
H1941       H  0.10542409  0.25195256  0.76147060     0.16200
H1942       H  0.10755548  0.17288658  0.80038194     0.12100
H1943       H  0.14181331  0.11467667  0.68030237     0.15000
H1944       H  0.14181086  0.19421554  0.64229478     0.14800
C1945       C  0.39419312  0.16312717  0.66867480    -0.18100
C1946       C  0.36547319  0.16160808  0.66936747    -0.20300
C1947       C  0.35168215  0.14154661  0.65396413     0.20400
C1948       C  0.36685584  0.12148830  0.63947910    -0.03200
C1949       C  0.39568310  0.12264640  0.63932637    -0.06300
C1950       C  0.40937246  0.14435009  0.65291012     0.20700
C1951       C  0.41067242  0.10337148  0.62371851     0.18800
C1952       C  0.39700697  0.08238424  0.60954178    -0.17700
C1953       C  0.36837114  0.08168247  0.60909814    -0.20000
C1954       C  0.35323269  0.10165185  0.62324207     0.20300
C1955       C  0.32489620  0.10347382  0.61972275    -0.33000
C1956       C  0.31022330  0.12448351  0.63259827     0.01000
C1957       C  0.32314453  0.14248982  0.65089941    -0.24300
C1958       C  0.43767499  0.14793822  0.64879722    -0.28900
C1959       C  0.45212622  0.12972474  0.63175937     0.06700
C1960       C  0.43889231  0.10665726  0.62068861    -0.27600
H1961       H  0.40444691  0.17964273  0.67952787     0.11400
H1962       H  0.35403481  0.17697034  0.68073281     0.12500
H1963       H  0.40842095  0.06743071  0.59761216     0.11600
H1964       H  0.35809256  0.06621977  0.59681055     0.10800
H1965       H  0.31442087  0.08958264  0.60578937     0.16200
H1966       H  0.31136467  0.15871728  0.66064700     0.12100
H1967       H  0.44816343  0.16545289  0.65773007     0.15000
H1968       H  0.45010810  0.09249792  0.60760855     0.14800
C1969       C  0.25357675  0.31385305  0.64860944    -0.18100
C1970       C  0.24014506  0.28908907  0.64283938    -0.20300
C1971       C  0.25264745  0.26938686  0.62586220     0.20400
C1972       C  0.27838998  0.27532139  0.61353790    -0.03200
C1973       C  0.29222992  0.30010013  0.61982157    -0.06300
C1974       C  0.27992022  0.31916805  0.63781382     0.20700
C1975       C  0.31919967  0.30482323  0.60974921     0.18800
C1976       C  0.33118015  0.28559766  0.59188429    -0.17700
C1977       C  0.31715631  0.26142705  0.58502714    -0.20000
C1978       C  0.29110012  0.25577726  0.59630404     0.20300
C1979       C  0.27828223  0.23030934  0.59190028    -0.33000
C1980       C  0.25360621  0.22355218  0.60555290     0.01000
C1981       C  0.24062114  0.24335666  0.62213261    -0.24300
C1982       C  0.29515636  0.34190310  0.64674155    -0.28900
C1983       C  0.32311152  0.34498248  0.63939687     0.06700
C1984       C  0.33455543  0.32731252  0.61965003    -0.27600
H1985       H  0.24389677  0.32829919  0.66254564     0.11400
H1986       H  0.22033017  0.28501248  0.65231408     0.12500
H1987       H  0.35177231  0.28883719  0.58388730     0.11600
H1988       H  0.32719848  0.24661752  0.57175017     0.10800
H1989       H  0.28854537  0.21494378  0.57942312     0.16200
H1990       H  0.22161503  0.23819333  0.63270665     0.12100
H1991       H  0.28642539  0.35527722  0.66233525     0.15000
H1992       H  0.35618211  0.32921065  0.61439387     0.14800
C1993       C  0.10940938  0.40208946  0.25790206    -0.18100
C1994       C  0.11358624  0.42321960  0.23874381    -0.20300
C1995       C  0.09894153  0.44803340  0.24081846     0.20400
C1996       C  0.07911305  0.45108971  0.26177663    -0.03200
C1997       C  0.07481008  0.42968047  0.28104083    -0.06300
C1998       C  0.09042597  0.40522642  0.27951921     0.20700
C1999       C  0.05572308  0.43330888  0.30253155     0.18800
C2000       C  0.04078082  0.45789648  0.30445186    -0.17700
C2001       C  0.04538579  0.47917147  0.28575431    -0.20000
C2002       C  0.06480011  0.47619569  0.26457380     0.20300
C2003       C  0.07177113  0.49862265  0.24770130    -0.33000
C2004       C  0.09305706  0.49648940  0.22818411     0.01000
C2005       C  0.10540433  0.47059676  0.22384991    -0.24300
C2006       C  0.08734531  0.38485541  0.30005416    -0.28900
C2007       C  0.06846151  0.38854026  0.32183012     0.06700
C2008       C  0.05246424  0.41276243  0.32236159    -0.27600
H2009       H  0.12152359  0.38350025  0.25614679     0.11400
H2010       H  0.12894603  0.42048351  0.22280592     0.12500
H2011       H  0.02603884  0.46097827  0.32090074     0.11600
H2012       H  0.03424404  0.49826646  0.28831619     0.10800
H2013       H  0.06290920  0.51860963  0.25194845     0.16200
H2014       H  0.12255912  0.46899121  0.20962401     0.12100
H2015       H  0.09983414  0.36644483  0.29928985     0.15000
H2016       H  0.03800802  0.41629289  0.33898048     0.14800
C2017       C  0.00234923  0.68115419  0.15172464    -0.18100
C2018       C  0.01980252  0.65904281  0.15785286    -0.20300
C2019       C  0.03913142  0.66100210  0.17915172     0.20400
C2020       C  0.04032910  0.68549637  0.19471943    -0.03200
C2021       C  0.02271092  0.70792472  0.18847133    -0.06300
C2022       C  0.00379685  0.70580543  0.16672044     0.20700
C2023       C  0.02495141  0.73288400  0.20315504     0.18800
C2024       C  0.04408226  0.73478086  0.22460825    -0.17700
C2025       C  0.06118423  0.71255050  0.23100989    -0.20000
C2026       C  0.05978275  0.68798562  0.21592588     0.20300
C2027       C  0.07816397  0.66631740  0.22112578    -0.33000
C2028       C  0.07795591  0.64199642  0.20522519     0.01000
C2029       C  0.05783564  0.63936473  0.18454602    -0.24300
C2030       C  0.98783741  0.72883194  0.15933416    -0.28900
C2031       C  0.99083112  0.75429515  0.17292193     0.06700
C2032       C  0.00922240  0.75592817  0.19514894    -0.27600
H2033       H  0.98806071  0.67915414  0.13482670     0.11400
H2034       H  0.01847595  0.64053280  0.14558322     0.12500
H2035       H  0.04618246  0.75366796  0.23615307     0.11600
H2036       H  0.07601257  0.71482608  0.24741912     0.10800
H2037       H  0.09331580  0.66882937  0.23721182     0.16200
H2038       H  0.05740129  0.62100124  0.17198520     0.12100
H2039       H  0.97472064  0.72763050  0.14141075     0.15000
H2040       H  0.01266722  0.77559806  0.20495945     0.14800
C2041       C  0.27150022  0.44424048  0.16118281    -0.18100
C2042       C  0.25429850  0.46098021  0.17698085    -0.20300
C2043       C  0.23370470  0.47668948  0.16445616     0.20400
C2044       C  0.23025418  0.47547346  0.13577603    -0.03200
C2045       C  0.24758179  0.45850792  0.11982612    -0.06300
C2046       C  0.26834062  0.44291720  0.13261770     0.20700
C2047       C  0.24423979  0.45728008  0.09111585     0.18800
C2048       C  0.22348113  0.47286154  0.07865208    -0.17700
C2049       C  0.20633068  0.48974361  0.09446949    -0.20000
C2050       C  0.20961787  0.49129914  0.12302836     0.20300
C2051       C  0.19271812  0.50842556  0.13905246    -0.33000
C2052       C  0.19608405  0.50972633  0.16768557     0.01000
C2053       C  0.21660170  0.49367105  0.18015703    -0.24300
C2054       C  0.28570983  0.42638636  0.11665251    -0.28900
C2055       C  0.28272951  0.42518179  0.08796904     0.06700
C2056       C  0.26181149  0.44063535  0.07537827    -0.27600
H2057       H  0.28732807  0.43238322  0.17130067     0.11400
H2058       H  0.25717142  0.46171624  0.19901436     0.12500
H2059       H  0.22059265  0.47209949  0.05662730     0.11600
H2060       H  0.19055221  0.50166037  0.08434661     0.10800
H2061       H  0.17689259  0.52058060  0.12927026     0.16200
H2062       H  0.21950415  0.49453728  0.20219323     0.12100
H2063       H  0.30170817  0.41461035  0.12662281     0.15000
H2064       H  0.25922714  0.43981798  0.05330865     0.14800
C2065       C  0.18472819  0.68953068  0.10927597    -0.18100
C2066       C  0.19837571  0.71289440  0.09939923    -0.20300
C2067       C  0.22328178  0.72156877  0.11118337     0.20400
C2068       C  0.23500366  0.70607467  0.13253664    -0.03200
C2069       C  0.22144644  0.68230372  0.14221497    -0.06300
C2070       C  0.19585771  0.67426181  0.13095522     0.20700
C2071       C  0.23294791  0.66729003  0.16398854     0.18800
C2072       C  0.25806917  0.67561418  0.17547595    -0.17700
C2073       C  0.27129793  0.69930102  0.16613365    -0.20000
C2074       C  0.25973686  0.71489679  0.14498297     0.20300
C2075       C  0.27198684  0.73963416  0.13675924    -0.33000
C2076       C  0.26009152  0.75552143  0.11595965     0.01000
C2077       C  0.23613541  0.74598787  0.10274736    -0.24300
C2078       C  0.18124682  0.65207839  0.14259227    -0.28900
C2079       C  0.19200528  0.63814028  0.16538588     0.06700
C2080       C  0.21843242  0.64510959  0.17499955    -0.27600
H2081       H  0.16518025  0.68372967  0.10032204     0.11400
H2082       H  0.18908864  0.72457626  0.08296854     0.12500
H2083       H  0.26710410  0.66422485  0.19225627     0.11600
H2084       H  0.29030515  0.70570246  0.17580212     0.10800
H2085       H  0.29045560  0.74683393  0.14692858     0.16200
H2086       H  0.22667133  0.75832253  0.08687948     0.12100
H2087       H  0.16083647  0.64697728  0.13522388     0.15000
H2088       H  0.22698804  0.63428894  0.19242669     0.14800
C2089       C  0.31022388  0.57600775  0.26028573    -0.18100
C2090       C  0.33559073  0.58336998  0.27176958    -0.20300
C2091       C  0.33669965  0.59622351  0.29755558     0.20400
C2092       C  0.31207718  0.60050679  0.31247172    -0.03200
C2093       C  0.28645511  0.59401216  0.30047037    -0.06300
C2094       C  0.28550587  0.58199571  0.27409357     0.20700
C2095       C  0.26178862  0.60084913  0.31429629     0.18800
C2096       C  0.26290501  0.61240630  0.34065115    -0.17700
C2097       C  0.28826818  0.61826684  0.35280070    -0.20000
C2098       C  0.31291422  0.61301915  0.33860236     0.20300
C2099       C  0.33813625  0.62218094  0.34909017    -0.33000
C2100       C  0.36216204  0.62080224  0.33300281     0.01000
C2101       C  0.36159082  0.60686765  0.30772758    -0.24300
C2102       C  0.25987941  0.57726152  0.26160187    -0.28900
C2103       C  0.23540037  0.58559332  0.27468323     0.06700
C2104       C  0.23647939  0.59692541  0.30115380    -0.27600
H2105       H  0.30989815  0.56663804  0.24010996     0.11400
H2106       H  0.35429440  0.57970144  0.26014128     0.12500
H2107       H  0.24413265  0.61754406  0.35161674     0.11600
H2108       H  0.28857502  0.62796227  0.37281680     0.10800
H2109       H  0.33842093  0.63348668  0.36826327     0.16200
H2110       H  0.38001497  0.60627614  0.29509127     0.12100
H2111       H  0.25900693  0.56831134  0.24123588     0.15000
H2112       H  0.21753247  0.60277709  0.31147381     0.14800
C2113       C  0.30953670  0.65446023  0.50855282    -0.18100
C2114       C  0.33169966  0.66021371  0.49079572    -0.20300
C2115       C  0.32705210  0.66882706  0.46368636     0.20400
C2116       C  0.29962524  0.67193637  0.45464358    -0.03200
C2117       C  0.27722399  0.66615837  0.47258502    -0.06300
C2118       C  0.28215647  0.65720155  0.49965498     0.20700
C2119       C  0.24990106  0.66838241  0.46305679     0.18800
C2120       C  0.24515983  0.67693910  0.43600752    -0.17700
C2121       C  0.26721938  0.68281134  0.41839710    -0.20000
C2122       C  0.29450190  0.68014852  0.42742932     0.20300
C2123       C  0.31663975  0.68501069  0.40943788    -0.33000
C2124       C  0.34422233  0.68166742  0.41789117     0.01000
C2125       C  0.34920274  0.67380151  0.44531293    -0.24300
C2126       C  0.25969952  0.64986652  0.51678248    -0.28900
C2127       C  0.23241658  0.65086750  0.50694075     0.06700
C2128       C  0.22782551  0.66070176  0.48020297    -0.27600
H2129       H  0.31383901  0.64745970  0.52916992     0.11400
H2130       H  0.35253828  0.65759805  0.49821281     0.12500
H2131       H  0.22433469  0.67868701  0.42830271     0.11600
H2132       H  0.26292250  0.68904721  0.39752869     0.10800
H2133       H  0.31222332  0.69098990  0.38851333     0.16200
H2134       H  0.37020485  0.67089812  0.45216468     0.12100
H2135       H  0.26357080  0.64135956  0.53693278     0.15000
H2136       H  0.20702366  0.66081707  0.47218159     0.14800
C2137       C  0.08155313  0.73547329  0.58146465    -0.18100
C2138       C  0.05929875  0.75310652  0.58691741    -0.20300
C2139       C  0.03200266  0.74427431  0.58307256     0.20400
C2140       C  0.02723067  0.71757488  0.57287408    -0.03200
C2141       C  0.04971499  0.69977069  0.56736982    -0.06300
C2142       C  0.07706081  0.70856996  0.57201454     0.20700
C2143       C  0.04471197  0.67281900  0.55817369     0.18800
C2144       C  0.01750678  0.66401704  0.55393113    -0.17700
C2145       C  0.99534759  0.68147029  0.55958533    -0.20000
C2146       C  0.99994418  0.70813210  0.56945846     0.20300
C2147       C  0.97774556  0.72478798  0.57762043    -0.33000
C2148       C  0.98224939  0.75086422  0.58919580     0.01000
C2149       C  0.00944137  0.76091216  0.59086352    -0.24300
C2150       C  0.09923853  0.69007023  0.56796217    -0.28900
C2151       C  0.09429531  0.66277983  0.55951721     0.06700
C2152       C  0.06684950  0.65475457  0.55418180    -0.27600
H2153       H  0.10229625  0.74273548  0.58515751     0.11400
H2154       H  0.06345129  0.77349617  0.59479206     0.12500
H2155       H  0.01332176  0.64335442  0.54682895     0.11600
H2156       H  0.97455697  0.67386732  0.55683861     0.10800
H2157       H  0.95695124  0.71666095  0.57689510     0.16200
H2158       H  0.01316065  0.78059509  0.60058028     0.12100
H2159       H  0.12010492  0.69660552  0.57228157     0.15000
H2160       H  0.06248754  0.63397662  0.54749343     0.14800
C2161       C  0.25574498  0.54641346  0.66349768    -0.18100
C2162       C  0.27152365  0.52766079  0.67840402    -0.20300
C2163       C  0.28861059  0.50878151  0.66478109     0.20400
C2164       C  0.29021558  0.50915772  0.63587627    -0.03200
C2165       C  0.27434463  0.52811378  0.62084324    -0.06300
C2166       C  0.25680198  0.54663441  0.63470567     0.20700
C2167       C  0.27556831  0.52807157  0.59192793     0.18800
C2168       C  0.29293243  0.50947543  0.57829986    -0.17700
C2169       C  0.30867030  0.49074393  0.59318508    -0.20000
C2170       C  0.30731007  0.49028736  0.62193701     0.20300
C2171       C  0.32250097  0.47106711  0.63692792    -0.33000
C2172       C  0.32076272  0.47023224  0.66574724     0.01000
C2173       C  0.30386071  0.48934243  0.67951499    -0.24300
C2174       C  0.23999301  0.56440733  0.61952475    -0.28900
C2175       C  0.24034414  0.56376987  0.59061922     0.06700
C2176       C  0.25877184  0.54598525  0.57706075    -0.27600
H2177       H  0.24242892  0.56050656  0.67448674     0.11400
H2178       H  0.27011982  0.52772005  0.70060397     0.12500
H2179       H  0.29407620  0.50918078  0.55610549     0.11600
H2180       H  0.32171940  0.47640627  0.58216928     0.10800
H2181       H  0.33543633  0.45651220  0.62605802     0.16200
H2182       H  0.30248059  0.48907392  0.70172401     0.12100
H2183       H  0.22589764  0.57796708  0.63024325     0.15000
H2184       H  0.25931584  0.54524449  0.55484664     0.14800
C2185       C  0.03970041  0.59614645  0.63614250    -0.18100
C2186       C  0.01432977  0.58312178  0.64033110    -0.20300
C2187       C  0.01316127  0.55497405  0.64625888     0.20400
C2188       C  0.03786033  0.54005195  0.64927208    -0.03200
C2189       C  0.06345507  0.55313427  0.64480363    -0.06300
C2190       C  0.06432343  0.58118057  0.63760683     0.20700
C2191       C  0.08799597  0.53768898  0.64559522     0.18800
C2192       C  0.08691773  0.50979743  0.65261569    -0.17700
C2193       C  0.06161649  0.49698905  0.65772129    -0.20000
C2194       C  0.03695241  0.51177448  0.65550462     0.20300
C2195       C  0.01138869  0.49864913  0.65870224    -0.33000
C2196       C  0.98679201  0.51319450  0.65469430     0.01000
C2197       C  0.98777320  0.54133810  0.64861371    -0.24300
C2198       C  0.08939428  0.59301959  0.62933794    -0.28900
C2199       C  0.11307086  0.57669502  0.62667595     0.06700
C2200       C  0.11273289  0.54969223  0.63674316    -0.27600
H2201       H  0.03998734  0.61765969  0.63062673     0.11400
H2202       H  0.99556324  0.59493788  0.63823994     0.12500
H2203       H  0.10558667  0.49766221  0.65331048     0.11600
H2204       H  0.06128430  0.47531037  0.66254205     0.10800
H2205       H  0.01056371  0.47696497  0.66354089     0.16200
H2206       H  0.96872612  0.55263487  0.64603780     0.12100
H2207       H  0.08949626  0.61365868  0.62106265     0.15000
H2208       H  0.13093460  0.53701568  0.63432871     0.14800
C2209       C  0.11658167  0.53183295  0.37412463    -0.18100
C2210       C  0.11642731  0.53246667  0.40271906    -0.20300
C2211       C  0.11647509  0.55766060  0.41661018     0.20400
C2212       C  0.11458520  0.58245088  0.40180520    -0.03200
C2213       C  0.11484242  0.58180351  0.37302723    -0.06300
C2214       C  0.11687913  0.55639069  0.35921613     0.20700
C2215       C  0.11533579  0.60662137  0.35816380     0.18800
C2216       C  0.11369606  0.63176696  0.37210846    -0.17700
C2217       C  0.11342292  0.63242302  0.40074248    -0.20000
C2218       C  0.11481072  0.60794158  0.41570239     0.20300
C2219       C  0.11869308  0.60847857  0.44408465    -0.33000
C2220       C  0.12303060  0.58392427  0.45814145     0.01000
C2221       C  0.12066865  0.55861309  0.44482874    -0.24300
C2222       C  0.12140606  0.55604872  0.33096288    -0.28900
C2223       C  0.12430519  0.58074347  0.31655145     0.06700
C2224       C  0.11966301  0.60589251  0.32983996    -0.27600
H2225       H  0.11785161  0.51221722  0.36371554     0.11400
H2226       H  0.11760249  0.51332520  0.41393161     0.12500
H2227       H  0.11388850  0.65094687  0.36090513     0.11600
H2228       H  0.11341494  0.65208202  0.41115236     0.10800
H2229       H  0.12068130  0.62788877  0.45481417     0.16200
H2230       H  0.12402303  0.53979020  0.45619393     0.12100
H2231       H  0.12446729  0.53664120  0.32048647     0.15000
H2232       H  0.12174845  0.62496846  0.31860034     0.14800
C2233       C  0.10608588  0.43809719  0.51925577    -0.18100
C2234       C  0.09971430  0.41463338  0.50397946    -0.20300
C2235       C  0.11455520  0.40828141  0.48002588     0.20400
C2236       C  0.13713844  0.42472108  0.47223141    -0.03200
C2237       C  0.14404400  0.44806337  0.48808213    -0.06300
C2238       C  0.12784697  0.45527618  0.51116848     0.20700
C2239       C  0.16615349  0.46499941  0.47993879     0.18800
C2240       C  0.18152348  0.45811211  0.45642972    -0.17700
C2241       C  0.17425006  0.43537382  0.44035562    -0.20000
C2242       C  0.15172445  0.41883415  0.44771446     0.20300
C2243       C  0.14228682  0.39781490  0.43012236    -0.33000
C2244       C  0.11870263  0.38260895  0.43712353     0.01000
C2245       C  0.10591420  0.38703878  0.46270081    -0.24300
C2246       C  0.13284842  0.48016137  0.52492766    -0.28900
C2247       C  0.15434579  0.49753413  0.51639714     0.06700
C2248       C  0.17153757  0.48929327  0.49453940    -0.27600
H2249       H  0.09360971  0.44313005  0.53702919     0.11400
H2250       H  0.08250154  0.40196334  0.51036521     0.12500
H2251       H  0.19859259  0.47090429  0.44989881     0.11600
H2252       H  0.18579223  0.43117227  0.42175409     0.10800
H2253       H  0.15185479  0.39479179  0.41021926     0.16200
H2254       H  0.08748683  0.37549877  0.46792618     0.12100
H2255       H  0.11948658  0.48647865  0.54164663     0.15000
H2256       H  0.18782944  0.50285362  0.48754646     0.14800
loop_ 
_geom_bond_atom_site_label_1 
_geom_bond_atom_site_label_2 
_geom_bond_distance 
_geom_bond_site_symmetry_2 
_ccdc_geom_bond_type 
Fe1          O17   2.074       .  S
Fe1           O7   2.041       .  S
Fe1          O14   2.055       .  S
Fe1           O6   2.081       .  S
Fe1          O12   1.932       .  S
Fe2           O5   2.086       .  S
Fe2           O9   2.033       .  S
Fe2          O13   2.086       .  S
Fe2          O18   2.030       .  S
Fe2          O12   1.927       .  S
Fe3          O21   2.102       .  S
Fe3           O8   2.124       .  S
Fe3          O15   2.141       .  S
Fe3           O4   2.066       .  S
Fe3          O12   1.956       .  S
O4           C11   1.274       .  A
O5           C19   1.276       .  A
O6           C11   1.276       .  A
O7           C10   1.263       .  A
O8           C20   1.278       .  A
O9           C22   1.266       .  A
C10          O15   1.282       .  A
C10        C2127   1.491       .  S
C11        C2175   1.485       .  S
O13          C16   1.269       .  A
O14          C16   1.264       .  A
C16        C2247   1.481       .  S
O17          C22   1.275       .  A
O18          C20   1.262       .  A
C19          O21   1.281       .  A
C19        C2151   1.503       .  S
C20        C2199   1.468       .  S
C22        C2220   1.444       .  S
Fe23         O39   2.077       .  S
Fe23         O29   2.017       .  S
Fe23         O36   2.050       .  S
Fe23         O28   2.048       .  S
Fe23         O34   1.944       .  S
Fe24         O27   2.069       .  S
Fe24         O31   2.029       .  S
Fe24         O35   2.092       .  S
Fe24         O40   2.023       .  S
Fe24         O34   1.945       .  S
Fe25         O43   2.107       .  S
Fe25         O30   2.134       .  S
Fe25         O37   2.145       .  S
Fe25         O26   2.076       .  S
Fe25         O34   1.959       .  S
O26          C33   1.271       .  A
O27          C41   1.267       .  A
O28          C33   1.266       .  A
O29          C32   1.263       .  A
O30          C42   1.287       .  A
O31          C44   1.267       .  A
C32          O37   1.288       .  A
C32        C2004   1.480       .  S
C33        C2052   1.481       .  S
O35          C38   1.269       .  A
O36          C38   1.259       .  A
C38        C2103   1.474       .  S
O39          C44   1.276       .  A
O40          C42   1.270       .  A
C41          O43   1.275       .  A
C41        C2028   1.507       .  S
C42        C2079   1.481       .  S
C44        C2223   1.461       .  S
Fe45         O61   2.062       .  S
Fe45         O51   2.045       .  S
Fe45         O58   2.064       .  S
Fe45         O50   2.081       .  S
Fe45         O56   1.942       .  S
Fe46         O49   2.094       .  S
Fe46         O53   2.030       .  S
Fe46         O57   2.075       .  S
Fe46         O62   2.026       .  S
Fe46         O56   1.941       .  S
Fe47         O65   2.096       .  S
Fe47         O52   2.118       .  S
Fe47         O59   2.131       .  S
Fe47         O48   2.067       .  S
Fe47         O56   1.965       .  S
O48          C55   1.277       .  A
O49          C63   1.279       .  A
O50          C55   1.279       .  A
O51          C54   1.259       .  A
O52          C64   1.274       .  A
O53          C66   1.266       .  A
C54          O59   1.277       .  A
C54        C1863   1.490       .  S
C55        C1911   1.480       .  S
O57          C60   1.267       .  A
O58          C60   1.265       .  A
C60        C1980   1.481       .  S
O61          C66   1.274       .  A
O62          C64   1.258       .  A
C63          O65   1.282       .  A
C63        C1884   1.503       .  S
C64        C1935   1.470       .  S
C66        C1956   1.444       .  S
Fe67         O83   2.056       .  S
Fe67         O73   2.038       .  S
Fe67         O80   2.069       .  S
Fe67         O72   2.049       .  S
Fe67         O78   1.954       .  S
Fe68         O71   2.039       .  S
Fe68         O75   2.041       .  S
Fe68         O79   2.060       .  S
Fe68         O84   2.030       .  S
Fe68         O78   1.947       .  S
Fe69         O87   2.127       .  S
Fe69         O74   2.100       .  S
Fe69         O81   2.115       .  S
Fe69         O70   2.101       .  S
Fe69         O78   1.961       .  S
O70          C77   1.281       .  A
O71          C85   1.266       .  A
O72          C77   1.273       .  A
O73          C76   1.261       .  A
O74          C86   1.275       .  A
O75          C88   1.268       .  A
C76          O81   1.277       .  A
C76        C1740   1.483       .  S
C77        C1791   1.484       .  S
O79          C82   1.264       .  A
O80          C82   1.264       .  A
C82        C1839   1.481       .  S
O83          C88   1.271       .  A
O84          C86   1.263       .  A
C85          O87   1.281       .  A
C85        C1764   1.502       .  S
C86        C1812   1.468       .  S
C88        C1959   1.458       .  S
Fe89        O105   2.058       .  S
Fe89         O95   2.034       .  S
Fe89        O102   2.055       .  S
Fe89         O94   2.047       .  S
Fe89        O100   1.946       .  S
Fe90         O93   2.065       .  S
Fe90         O97   2.032       .  S
Fe90        O101   2.094       .  S
Fe90        O106   2.018       .  S
Fe90        O100   1.940       .  S
Fe91        O109   2.102       .  S
Fe91         O96   2.151       .  S
Fe91        O103   2.161       .  S
Fe91         O92   2.076       .  S
Fe91        O100   1.953       .  S
O92          C99   1.270       .  A
O93         C107   1.268       .  A
O94          C99   1.266       .  A
O95          C98   1.266       .  A
O96         C108   1.289       .  A
O97         C110   1.261       .  A
C98         O103   1.292       .  A
C98        C1599   1.492       .  S
C99        C1647   1.481       .  S
O101        C104   1.272       .  A
O102        C104   1.265       .  A
C104       C1719   1.470       .  S
O105        C110   1.268       .  A
O106        C108   1.266       .  A
C107        O109   1.275       .  A
C107       C1623   1.500       .  S
C108       C1668   1.483       .  S
C110       C1695   1.437       .  S
Fe111       O127   2.066       .  S
Fe111       O117   2.036       .  S
Fe111       O124   2.056       .  S
Fe111       O116   2.046       .  S
Fe111       O122   1.956       .  S
Fe112       O115   2.049       .  S
Fe112       O119   2.025       .  S
Fe112       O123   2.070       .  S
Fe112       O128   2.019       .  S
Fe112       O122   1.956       .  S
Fe113       O131   2.099       .  S
Fe113       O118   2.119       .  S
Fe113       O125   2.120       .  S
Fe113       O114   2.076       .  S
Fe113       O122   1.972       .  S
O114        C121   1.272       .  A
O115        C129   1.262       .  A
O116        C121   1.266       .  A
O117        C120   1.264       .  A
O118        C130   1.283       .  A
O119        C132   1.267       .  A
C120        O125   1.280       .  A
C120       C1476   1.479       .  S
C121       C1524   1.481       .  S
O123        C126   1.262       .  A
O124        C126   1.260       .  A
C126       C1575   1.467       .  S
O127        C132   1.276       .  A
O128        C130   1.269       .  A
C129        O131   1.271       .  A
C129       C1503   1.497       .  S
C130       C1551   1.470       .  S
C132       C1692   1.454       .  S
Fe133       O149   2.072       .  S
Fe133       O139   2.050       .  S
Fe133       O146   2.052       .  S
Fe133       O138   2.090       .  S
Fe133       O144   1.931       .  S
Fe134       O137   2.091       .  S
Fe134       O141   2.035       .  S
Fe134       O145   2.082       .  S
Fe134       O150   2.040       .  S
Fe134       O144   1.928       .  S
Fe135       O153   2.095       .  S
Fe135       O140   2.130       .  S
Fe135       O147   2.140       .  S
Fe135       O136   2.066       .  S
Fe135       O144   1.952       .  S
O136        C143   1.277       .  A
O137        C151   1.279       .  A
O138        C143   1.278       .  A
O139        C142   1.263       .  A
O140        C152   1.278       .  A
O141        C154   1.265       .  A
C142        O147   1.280       .  A
C142       C1356   1.493       .  S
C143       C1404   1.486       .  S
O145        C148   1.270       .  A
O146        C148   1.265       .  A
C148       C1815   1.473       .  S
O149        C154   1.275       .  A
O150        C152   1.259       .  A
C151        O153   1.282       .  A
C151       C1380   1.501       .  S
C152       C1428   1.475       .  S
C154       C1452   1.447       .  S
Fe155       O171   2.072       .  S
Fe155       O161   2.017       .  S
Fe155       O168   2.041       .  S
Fe155       O160   2.037       .  S
Fe155       O166   1.946       .  S
Fe156       O159   2.054       .  S
Fe156       O163   2.040       .  S
Fe156       O167   2.083       .  S
Fe156       O172   2.040       .  S
Fe156       O166   1.949       .  S
Fe157       O175   2.106       .  S
Fe157       O162   2.125       .  S
Fe157       O169   2.136       .  S
Fe157       O158   2.090       .  S
Fe157       O166   1.962       .  S
O158        C165   1.273       .  A
O159        C173   1.264       .  A
O160        C165   1.264       .  A
O161        C164   1.263       .  A
O162        C174   1.286       .  A
O163        C176   1.269       .  A
C164        O169   1.285       .  A
C164       C1767   1.476       .  S
C165       C1284   1.486       .  S
O167        C170   1.265       .  A
O168        C170   1.257       .  A
C170       C1332   1.463       .  S
O171        C176   1.274       .  A
O172        C174   1.274       .  A
C173        O175   1.274       .  A
C173       C1260   1.502       .  S
C174       C1308   1.484       .  S
C176       C1455   1.468       .  S
Fe177       O193   2.050       .  S
Fe177       O183   2.029       .  S
Fe177       O190   2.055       .  S
Fe177       O182   2.051       .  S
Fe177       O188   1.973       .  S
Fe178       O181   2.051       .  S
Fe178       O185   2.039       .  S
Fe178       O189   2.065       .  S
Fe178       O194   2.026       .  S
Fe178       O188   1.967       .  S
Fe179       O197   2.118       .  S
Fe179       O184   2.109       .  S
Fe179       O191   2.119       .  S
Fe179       O180   2.103       .  S
Fe179       O188   1.984       .  S
O180        C187   1.278       .  A
O181        C195   1.266       .  A
O182        C187   1.270       .  A
O183        C186   1.259       .  A
O184        C196   1.277       .  A
O185        C198   1.267       .  A
C186        O191   1.278       .  A
C186       C1140   1.479       .  S
C187       C1188   1.487       .  S
O189        C192   1.266       .  A
O190        C192   1.262       .  A
C192       C2076   1.479       .  S
O193        C198   1.269       .  A
O194        C196   1.264       .  A
C195        O197   1.277       .  A
C195       C1167   1.505       .  S
C196       C1215   1.471       .  S
C198       C1239   1.452       .  S
Fe199       O215   2.075   1_655  S
Fe199       O205   2.032   1_655  S
Fe199       O212   2.057       .  S
Fe199       O204   2.067       .  S
Fe199       O210   1.938       .  S
Fe200       O203   2.075       .  S
Fe200       O207   2.023   1_655  S
Fe200       O211   2.085       .  S
Fe200       O216   2.027       .  S
Fe200       O210   1.937       .  S
Fe201       O219   2.104       .  S
Fe201       O206   2.138       .  S
Fe201       O213   2.158       .  S
Fe201       O202   2.070       .  S
Fe201       O210   1.950       .  S
O202        C209   1.272       .  A
O203        C217   1.271       .  A
O204        C209   1.272       .  A
O205        C208   1.262   1_455  A
O206        C218   1.285       .  A
O207        C220   1.265       .  A
C208        O213   1.288       .  A
C208       C2031   1.492       .  S
C209       C1068   1.482       .  S
O211        C214   1.267       .  A
O212        C214   1.261       .  A
C214       C1116   1.469   1_655  S
O215        C220   1.275       .  A
O216        C218   1.267       .  A
C217        O219   1.279       .  A
C217       C1044   1.501       .  S
C218       C1095   1.479       .  S
C220       C1236   1.440       .  S
Fe221       O237   2.068       .  S
Fe221       O227   2.014   1_565  S
Fe221       O234   2.051       .  S
Fe221       O226   2.039   1_565  S
Fe221       O232   1.939   1_565  S
Fe222       O225   2.062   1_565  S
Fe222       O229   2.034       .  S
Fe222       O233   2.097       .  S
Fe222       O238   2.030   1_565  S
Fe222       O232   1.943   1_565  S
Fe223       O241   2.117       .  S
Fe223       O228   2.128       .  S
Fe223       O235   2.144       .  S
Fe223       O224   2.084       .  S
Fe223       O232   1.956       .  S
O224        C231   1.273       .  A
O225        C239   1.266       .  A
O226        C231   1.265       .  A
O227        C230   1.262       .  A
O228        C240   1.287       .  A
O229        C242   1.267       .  A
C230        O235   1.287       .  A
C230       C1164   1.479       .  S
C231       C1527   1.481       .  S
O233        C236   1.268       .  A
O234        C236   1.259       .  A
C236       C1431   1.479       .  S
O237        C242   1.275       .  A
O238        C240   1.272       .  A
C239        O241   1.277       .  A
C239       C1860   1.509       .  S
C240       C1836   1.481       .  S
C242       C1020   1.462       .  S
Fe243       O259   2.071       .  S
Fe243       O249   2.042       .  S
Fe243       O256   2.048       .  S
Fe243       O248   2.082       .  S
Fe243       O254   1.932       .  S
Fe244       O247   2.100       .  S
Fe244       O251   2.033       .  S
Fe244       O255   2.092       .  S
Fe244       O260   2.041       .  S
Fe244       O254   1.924       .  S
Fe245       O263   2.091       .  S
Fe245       O250   2.118       .  S
Fe245       O257   2.135       .  S
Fe245       O246   2.058       .  S
Fe245       O254   1.955       .  S
O246        C253   1.275       .  A
O247        C261   1.281       .  A
O248        C253   1.277       .  A
O249        C252   1.262       .  A
O250        C262   1.275       .  A
O251        C264   1.265       .  A
C252        O257   1.279       .  A
C252       C1383   1.489       .  S
C253       C1644   1.477       .  S
O255        C258   1.272       .  A
O256        C258   1.264       .  A
C258       C1212   1.475       .  S
O259        C264   1.273       .  A
O260        C262   1.260       .  A
C261        O263   1.282       .  A
C261       C2124   1.503       .  S
C262       C2100   1.470       .  S
C264       C1023   1.444       .  S
Fe265       O281   2.072       .  S
Fe265       O271   2.040       .  S
Fe265       O278   2.059       .  S
Fe265       O270   2.083       .  S
Fe265       O276   1.942       .  S
Fe266       O269   2.088       .  S
Fe266       O273   2.030       .  S
Fe266       O277   2.090       .  S
Fe266       O282   2.031       .  S
Fe266       O276   1.934       .  S
Fe267       O285   2.098       .  S
Fe267       O272   2.120       .  S
Fe267       O279   2.130       .  S
Fe267       O268   2.077       .  S
Fe267       O276   1.959       .  S
O268        C275   1.276       .  A
O269        C283   1.275       .  A
O270        C275   1.276       .  A
O271        C274   1.262       .  A
O272        C284   1.278       .  A
O273        C286   1.263       .  A
C274        O279   1.279       .  A
C274       C1263   1.482       .  S
C275       C1191   1.490       .  S
O277        C280   1.271       .  A
O278        C280   1.265       .  A
C280       C1671   1.476       .  S
O281        C286   1.273       .  A
O282        C284   1.263       .  A
C283        O285   1.280       .  A
C283        C951   1.502       .  S
C284        C972   1.468       .  S
C286        C999   1.442       .  S
Fe287       O303   2.055       .  S
Fe287       O293   2.045       .  S
Fe287       O300   2.075       .  S
Fe287       O292   2.052       .  S
Fe287       O298   1.962       .  S
Fe288       O291   2.041       .  S
Fe288       O295   2.042       .  S
Fe288       O299   2.056       .  S
Fe288       O304   2.033       .  S
Fe288       O298   1.954       .  S
Fe289       O307   2.113       .  S
Fe289       O294   2.107       .  S
Fe289       O301   2.113       .  S
Fe289       O290   2.089       .  S
Fe289       O298   1.967       .  S
O290        C297   1.277       .  A
O291        C305   1.265       .  A
O292        C297   1.271       .  A
O293        C296   1.264       .  A
O294        C306   1.277       .  A
O295        C308   1.267       .  A
C296        O301   1.278       .  A
C296       C1620   1.481       .  S
C297       C1071   1.483       .  S
O299        C302   1.265       .  A
O300        C302   1.266       .  A
C302       C1311   1.482       .  S
O303        C308   1.270       .  A
O304        C306   1.264       .  A
C305        O307   1.277       .  A
C305        C903   1.497       .  S
C306        C927   1.474       .  S
C308        C996   1.467       .  S
Fe309       O325   2.083   1_554  S
Fe309       O315   2.028       .  S
Fe309       O322   2.056       .  S
Fe309       O314   2.071       .  S
Fe309       O320   1.938       .  S
Fe310       O313   2.072       .  S
Fe310       O317   2.013   1_554  S
Fe310       O321   2.090       .  S
Fe310       O326   2.022       .  S
Fe310       O320   1.942       .  S
Fe311       O329   2.090       .  S
Fe311       O316   2.144       .  S
Fe311       O323   2.143       .  S
Fe311       O312   2.060       .  S
Fe311       O320   1.943       .  S
O312        C319   1.271       .  A
O313        C327   1.268       .  A
O314        C319   1.272       .  A
O315        C318   1.263       .  A
O316        C328   1.288       .  A
O317        C330   1.263       .  A
C318        O323   1.285       .  A
C318        C855   1.485       .  S
C319       C2055   1.482       .  S
O321        C324   1.267       .  A
O322        C324   1.261       .  A
C324        C975   1.471   1_554  S
O325        C330   1.277       .  A
O326        C328   1.268       .  A
C327        O329   1.272       .  A
C327       C1479   1.494       .  S
C328       C1716   1.478       .  S
C330        C876   1.435       .  S
Fe331       O347   2.059       .  S
Fe331       O337   2.038       .  S
Fe331       O344   2.063       .  S
Fe331       O336   2.063       .  S
Fe331       O342   1.978       .  S
Fe332       O335   2.060       .  S
Fe332       O339   2.018       .  S
Fe332       O343   2.062       .  S
Fe332       O348   2.008       .  S
Fe332       O342   1.973       .  S
Fe333       O351   2.100       .  S
Fe333       O338   2.126       .  S
Fe333       O345   2.125       .  S
Fe333       O334   2.071       .  S
Fe333       O342   1.988       .  S
O334        C341   1.272       .  A
O335        C349   1.267       .  A
O336        C341   1.270       .  A
O337        C340   1.263       .  A
O338        C350   1.280       .  A
O339        C352   1.261       .  A
C340        O345   1.281       .  A
C340        C948   1.484       .  S
C341       C2172   1.485       .  S
O343        C346   1.266       .  A
O344        C346   1.265       .  A
C346        C828   1.478       .  S
O347        C352   1.270       .  A
O348        C350   1.260       .  A
C349        O351   1.274       .  A
C349       C1743   1.498       .  S
C350       C1983   1.476       .  S
C352        C879   1.444       .  S
Fe353       O369   2.082       .  S
Fe353       O359   2.024       .  S
Fe353       O366   2.050       .  S
Fe353       O358   2.057       .  S
Fe353       O364   1.949       .  S
Fe354       O357   2.060       .  S
Fe354       O361   2.025       .  S
Fe354       O365   2.083       .  S
Fe354       O370   2.027       .  S
Fe354       O364   1.950       .  S
Fe355       O373   2.110       .  S
Fe355       O360   2.135       .  S
Fe355       O367   2.139       .  S
Fe355       O356   2.082       .  S
Fe355       O364   1.958       .  S
O356        C363   1.273       .  A
O357        C371   1.264       .  A
O358        C363   1.267       .  A
O359        C362   1.263       .  A
O360        C372   1.289       .  A
O361        C374   1.267       .  A
C362        O367   1.286       .  A
C362        C756   1.481       .  S
C363        C783   1.488       .  S
O365        C368   1.264       .  A
O366        C368   1.258       .  A
C368       C1932   1.466       .  S
O369        C374   1.278       .  A
O370        C372   1.271       .  A
C371        O373   1.274       .  A
C371        C852   1.506       .  S
C372        C831   1.482       .  S
C374        C804   1.459       .  S
Fe375       O391   2.072   1_565  S
Fe375       O381   2.043       .  S
Fe375       O388   2.055       .  S
Fe375       O380   2.091       .  S
Fe375       O386   1.939       .  S
Fe376       O379   2.091       .  S
Fe376       O383   2.031       .  S
Fe376       O387   2.075       .  S
Fe376       O392   2.029       .  S
Fe376       O386   1.933       .  S
Fe377       O395   2.090       .  S
Fe377       O382   2.126       .  S
Fe377       O389   2.130       .  S
Fe377       O378   2.071       .  S
Fe377       O386   1.952       .  S
O378        C385   1.276       .  A
O379        C393   1.275       .  A
O380        C385   1.278       .  A
O381        C384   1.263       .  A
O382        C394   1.279       .  A
O383        C396   1.264   1_565  A
C384        O389   1.279       .  A
C384       C1887   1.486       .  S
C385        C708   1.491       .  S
O387        C390   1.269       .  A
O388        C390   1.265       .  A
C390        C732   1.471       .  S
O391        C396   1.274       .  A
O392        C394   1.260       .  A
C393        O395   1.278       .  A
C393       C1143   1.500       .  S
C394       C1119   1.469       .  S
C396        C807   1.442       .  S
Fe397       O413   2.065       .  S
Fe397       O403   2.040       .  S
Fe397       O410   2.057       .  S
Fe397       O402   2.074       .  S
Fe397       O408   1.939       .  S
Fe398       O401   2.085       .  S
Fe398       O405   2.037       .  S
Fe398       O409   2.088       .  S
Fe398       O414   2.030       .  S
Fe398       O408   1.932       .  S
Fe399       O417   2.112       .  S
Fe399       O404   2.109       .  S
Fe399       O411   2.133       .  S
Fe399       O400   2.087       .  S
Fe399       O408   1.959       .  S
O400        C407   1.276       .  A
O401        C415   1.275       .  A
O402        C407   1.274       .  A
O403        C406   1.264       .  A
O404        C416   1.276       .  A
O405        C418   1.265       .  A
C406        O411   1.281       .  A
C406       C2148   1.485       .  S
C407        C711   1.492       .  S
O409        C412   1.271       .  A
O410        C412   1.266       .  A
C412        C924   1.479       .  S
O413        C418   1.272       .  A
O414        C416   1.264       .  A
C415        O417   1.282       .  A
C415       C1359   1.509       .  S
C416       C1335   1.463       .  S
C418        C687   1.445       .  S
Fe419       O435   2.076       .  S
Fe419       O425   2.017       .  S
Fe419       O432   2.050       .  S
Fe419       O424   2.049       .  S
Fe419       O430   1.937       .  S
Fe420       O423   2.064       .  S
Fe420       O427   2.026       .  S
Fe420       O431   2.097       .  S
Fe420       O436   2.020       .  S
Fe420       O430   1.946       .  S
Fe421       O439   2.104       .  S
Fe421       O426   2.126       .  S
Fe421       O433   2.131       .  S
Fe421       O422   2.084       .  S
Fe421       O430   1.955       .  S
O422        C429   1.272       .  A
O423        C437   1.265       .  A
O424        C429   1.266       .  A
O425        C428   1.264       .  A
O426        C438   1.287       .  A
O427        C440   1.266       .  A
C428        O433   1.285       .  A
C428        C900   1.474       .  S
C429        C780   1.487       .  S
O431        C434   1.268       .  A
O432        C434   1.259       .  A
C434       C2196   1.474       .  S
O435        C440   1.276       .  A
O436        C438   1.272       .  A
C437        O439   1.273       .  A
C437        C636   1.504       .  S
C438        C660   1.475       .  S
C440        C684   1.462       .  S
Fe441       O457   2.034   1_455  S
Fe441       O447   2.060       .  S
Fe441       O454   2.071       .  S
Fe441       O446   2.034       .  S
Fe441       O452   1.937       .  S
Fe442       O445   2.036       .  S
Fe442       O449   2.064       .  S
Fe442       O453   2.056       .  S
Fe442       O458   2.057       .  S
Fe442       O452   1.933       .  S
Fe443       O461   2.135       .  S
Fe443       O448   2.101       .  S
Fe443       O455   2.122       .  S
Fe443       O444   2.116       .  S
Fe443       O452   1.939       .  S
O444        C451   1.282       .  A
O445        C459   1.264       .  A
O446        C451   1.268       .  A
O447        C450   1.264       .  A
O448        C460   1.278       .  A
O449        C462   1.272   1_455  A
C450        O455   1.281       .  A
C450        C588   1.486       .  S
C451       C1908   1.483       .  S
O453        C456   1.265       .  A
O454        C456   1.266       .  A
C456        C663   1.478       .  S
O457        C462   1.269       .  A
O458        C460   1.270       .  A
C459        O461   1.281       .  A
C459       C2007   1.501       .  S
C460       C2244   1.475       .  S
C462        C615   1.458       .  S
Fe463       O479   2.052       .  S
Fe463       O469   2.036       .  S
Fe463       O476   2.073       .  S
Fe463       O468   2.034       .  S
Fe463       O474   1.951       .  S
Fe464       O467   2.064       .  S
Fe464       O471   2.052       .  S
Fe464       O475   2.081       .  S
Fe464       O480   2.030       .  S
Fe464       O474   1.948       .  S
Fe465       O483   2.112       .  S
Fe465       O470   2.119       .  S
Fe465       O477   2.144       .  S
Fe465       O466   2.091       .  S
Fe465       O474   1.961       .  S
O466        C473   1.271       .  A
O467        C481   1.267       .  A
O468        C473   1.261       .  A
O469        C472   1.268       .  A
O470        C482   1.284       .  A
O471        C484   1.268       .  A
C472        O477   1.289       .  A
C472        C639   1.485       .  S
C473       C1788   1.479       .  S
O475        C478   1.268       .  A
O476        C478   1.265       .  A
C478        C564   1.476       .  S
O479        C484   1.270       .  A
O480        C482   1.269       .  A
C481        O483   1.277       .  A
C481       C1596   1.509       .  S
C482       C1572   1.468       .  S
C484        C612   1.459       .  S
Fe485       O501   2.073       .  S
Fe485       O491   2.040       .  S
Fe485       O498   2.048       .  S
Fe485       O490   2.079       .  S
Fe485       O496   1.937       .  S
Fe486       O489   2.092       .  S
Fe486       O493   2.031       .  S
Fe486       O497   2.087       .  S
Fe486       O502   2.021       .  S
Fe486       O496   1.933       .  S
Fe487       O505   2.092       .  S
Fe487       O492   2.131       .  S
Fe487       O499   2.140       .  S
Fe487       O488   2.066       .  S
Fe487       O496   1.947       .  S
O488        C495   1.272       .  A
O489        C503   1.275       .  A
O490        C495   1.274       .  A
O491        C494   1.265       .  A
O492        C504   1.282       .  A
O493        C506   1.262       .  A
C494        O499   1.284       .  A
C494       C1047   1.484       .  S
C495       C1407   1.486       .  S
O497        C500   1.272       .  A
O498        C500   1.265       .  A
C500       C1548   1.467       .  S
O501        C506   1.272       .  A
O502        C504   1.261       .  A
C503        O505   1.277       .  A
C503        C591   1.503       .  S
C504        C567   1.468       .  S
C506        C540   1.443       .  S
Fe507       O523   2.049   1_556  S
Fe507       O513   2.027       .  S
Fe507       O520   2.056   1_556  S
Fe507       O512   2.044       .  S
Fe507       O518   1.969       .  S
Fe508       O511   2.060       .  S
Fe508       O515   2.049   1_556  S
Fe508       O519   2.075   1_556  S
Fe508       O524   2.030       .  S
Fe508       O518   1.960       .  S
Fe509       O527   2.107       .  S
Fe509       O514   2.104       .  S
Fe509       O521   2.114       .  S
Fe509       O510   2.100       .  S
Fe509       O518   1.977       .  S
O510        C517   1.280       .  A
O511        C525   1.267       .  A
O512        C517   1.271       .  A
O513        C516   1.258       .  A
O514        C526   1.277       .  A
O515        C528   1.272       .  A
C516        O521   1.275       .  A
C516       C1500   1.479       .  S
C517       C1287   1.483       .  S
O519        C522   1.264       .  A
O520        C522   1.259       .  A
C522       C1092   1.476       .  S
O523        C528   1.272       .  A
O524        C526   1.266       .  A
C525        O527   1.276       .  A
C525        C759   1.503       .  S
C526        C735   1.470       .  S
C528        C543   1.466       .  S
C529        C530   1.395       .  A
C529        C534   1.403       .  A
C529        H545   1.084       .  S
C530        C531   1.401       .  A
C530        H546   1.083       .  S
C531        C541   1.397       .  A
C531        C532   1.415       .  A
C532        C538   1.411       .  A
C532        C533   1.402       .  A
C533        C535   1.413       .  A
C533        C534   1.410       .  A
C534        C542   1.393       .  A
C535        C544   1.394       .  A
C535        C536   1.402       .  A
C536        C537   1.394       .  A
C536        H547   1.084       .  S
C537        C538   1.402       .  A
C537        H548   1.084       .  S
C538        C539   1.390       .  A
C539        C540   1.399       .  A
C539        H549   1.086       .  S
C540        C541   1.396       .  A
C541        H550   1.084       .  S
C542        C543   1.405       .  A
C542        H551   1.084       .  S
C543        C544   1.403       .  A
C544        H552   1.085       .  S
C553        C554   1.405       .  A
C553        C558   1.407       .  A
C553        H569   1.083       .  S
C554        C555   1.405       .  A
C554        H570   1.084       .  S
C555        C565   1.414       .  A
C555        C556   1.414       .  A
C556        C562   1.409       .  A
C556        C557   1.413       .  A
C557        C559   1.413       .  A
C557        C558   1.410       .  A
C558        C566   1.409       .  A
C559        C568   1.400       .  A
C559        C560   1.401       .  A
C560        C561   1.394       .  A
C560        H571   1.084       .  S
C561        C562   1.401       .  A
C561        H572   1.080       .  S
C562        C563   1.396       .  A
C563        C564   1.402       .  A
C563        H573   1.080       .  S
C564        C565   1.408       .  A
C565        H574   1.085       .  S
C566        C567   1.411       .  A
C566        H575   1.084       .  S
C567        C568   1.400       .  A
C568        H576   1.085       .  S
C577        C578   1.403       .  A
C577        C582   1.406       .  A
C577        H593   1.083       .  S
C578        C579   1.404       .  A
C578        H594   1.083       .  S
C579        C589   1.413   1_655  A
C579        C580   1.414   1_655  A
C580        C586   1.410       .  A
C580        C581   1.421   1_455  A
C581        C583   1.413       .  A
C581        C582   1.409       .  A
C582        C590   1.410       .  A
C583        C592   1.414       .  A
C583        C584   1.405   1_655  A
C584        C585   1.403       .  A
C584        H595   1.083       .  S
C585        C586   1.406       .  A
C585        H596   1.084       .  S
C586        C587   1.409       .  A
C587        C588   1.412       .  A
C587        H597   1.085       .  S
C588        C589   1.408       .  A
C589        H598   1.084       .  S
C590        C591   1.414       .  A
C590        H599   1.084       .  S
C591        C592   1.411       .  A
C592        H600   1.084       .  S
C601        C602   1.389       .  A
C601        C606   1.399       .  A
C601        H617   1.085       .  S
C602        C603   1.400       .  A
C602        H618   1.083       .  S
C603        C613   1.384       .  A
C603        C604   1.407       .  A
C604        C610   1.414       .  A
C604        C605   1.401       .  A
C605        C607   1.410       .  A
C605        C606   1.412       .  A
C606        C614   1.386       .  A
C607        C616   1.400       .  A
C607        C608   1.404       .  A
C608        C609   1.400       .  A
C608        H619   1.083       .  S
C609        C610   1.403       .  A
C609        H620   1.084       .  S
C610        C611   1.404       .  A
C611        C612   1.403       .  A
C611        H621   1.084       .  S
C612        C613   1.402       .  A
C613        H622   1.083       .  S
C614        C615   1.399       .  A
C614        H623   1.086       .  S
C615        C616   1.406       .  A
C616        H624   1.084       .  S
C625        C626   1.404       .  A
C625        C630   1.406       .  A
C625        H641   1.083       .  S
C626        C627   1.405       .  A
C626        H642   1.084       .  S
C627        C637   1.416       .  A
C627        C628   1.414       .  A
C628        C634   1.408       .  A
C628        C629   1.421       .  A
C629        C631   1.414       .  A
C629        C630   1.410       .  A
C630        C638   1.411       .  A
C631        C640   1.412       .  A
C631        C632   1.404       .  A
C632        C633   1.401       .  A
C632        H643   1.084       .  S
C633        C634   1.406       .  A
C633        H644   1.083       .  S
C634        C635   1.406       .  A
C635        C636   1.415       .  A
C635        H645   1.084       .  S
C636        C637   1.411       .  A
C637        H646   1.084       .  S
C638        C639   1.411       .  A
C638        H647   1.085       .  S
C639        C640   1.407       .  A
C640        H648   1.085       .  S
C649        C650   1.395       .  A
C649        C654   1.402       .  A
C649        H665   1.083       .  S
C650        C651   1.403   1_455  A
C650        H666   1.084       .  S
C651        C661   1.394       .  A
C651        C652   1.408       .  A
C652        C658   1.415       .  A
C652        C653   1.410       .  A
C653        C655   1.410       .  A
C653        C654   1.413   1_655  A
C654        C662   1.400       .  A
C655        C664   1.403       .  A
C655        C656   1.405       .  A
C656        C657   1.400       .  A
C656        H667   1.083       .  S
C657        C658   1.403       .  A
C657        H668   1.084       .  S
C658        C659   1.408       .  A
C659        C660   1.404       .  A
C659        H669   1.084       .  S
C660        C661   1.408       .  A
C661        H670   1.085       .  S
C662        C663   1.404       .  A
C662        H671   1.084       .  S
C663        C664   1.409   1_455  A
C664        H672   1.084       .  S
C673        C674   1.396       .  A
C673        C678   1.401       .  A
C673        H689   1.084       .  S
C674        C675   1.403       .  A
C674        H690   1.083       .  S
C675        C685   1.395       .  A
C675        C676   1.411       .  A
C676        C682   1.412       .  A
C676        C677   1.401       .  A
C677        C679   1.411       .  A
C677        C678   1.415       .  A
C678        C686   1.398       .  A
C679        C688   1.389       .  A
C679        C680   1.401       .  A
C680        C681   1.393       .  A
C680        H691   1.084       .  S
C681        C682   1.401       .  A
C681        H692   1.084       .  S
C682        C683   1.391       .  A
C683        C684   1.401       .  A
C683        H693   1.085       .  S
C684        C685   1.404       .  A
C685        H694   1.084       .  S
C686        C687   1.397       .  A
C686        H695   1.085       .  S
C687        C688   1.399       .  A
C688        H696   1.086       .  S
C697        C698   1.402       .  A
C697        C702   1.405       .  A
C697        H713   1.083       .  S
C698        C699   1.405       .  A
C698        H714   1.084       .  S
C699        C709   1.407       .  A
C699        C700   1.410       .  A
C700        C706   1.412       .  A
C700        C701   1.415       .  A
C701        C703   1.409       .  A
C701        C702   1.413       .  A
C702        C710   1.411   1_455  A
C703        C712   1.401       .  A
C703        C704   1.404       .  A
C704        C705   1.398       .  A
C704        H715   1.083       .  S
C705        C706   1.403       .  A
C705        H716   1.084       .  S
C706        C707   1.404       .  A
C707        C708   1.408       .  A
C707        H717   1.084       .  S
C708        C709   1.412       .  A
C709        H718   1.084       .  S
C710        C711   1.410       .  A
C710        H719   1.084       .  S
C711        C712   1.411   1_655  A
C712        H720   1.084       .  S
C721        C722   1.396       .  A
C721        C726   1.403   1_565  A
C721        H737   1.083       .  S
C722        C723   1.402       .  A
C722        H738   1.084       .  S
C723        C733   1.401       .  A
C723        C724   1.414   1_565  A
C724        C730   1.411       .  A
C724        C725   1.412       .  A
C725        C727   1.415       .  A
C725        C726   1.410       .  A
C726        C734   1.396       .  A
C727        C736   1.410       .  A
C727        C728   1.404       .  A
C728        C729   1.402       .  A
C728        H739   1.084       .  S
C729        C730   1.405       .  A
C729        H740   1.083       .  S
C730        C731   1.405   1_655  A
C731        C732   1.407   1_545  A
C731        H741   1.085       .  S
C732        C733   1.401   1_455  A
C733        H742   1.085   1_655  S
C734        C735   1.404       .  A
C734        H743   1.085       .  S
C735        C736   1.405       .  A
C736        H744   1.084       .  S
C745        C746   1.403       .  A
C745        C750   1.405       .  A
C745        H761   1.083       .  S
C746        C747   1.406       .  A
C746        H762   1.084       .  S
C747        C757   1.410       .  A
C747        C748   1.410       .  A
C748        C754   1.414       .  A
C748        C749   1.420       .  A
C749        C751   1.409       .  A
C749        C750   1.414       .  A
C750        C758   1.415       .  A
C751        C760   1.407       .  A
C751        C752   1.405       .  A
C752        C753   1.402   1_655  A
C752        H763   1.084       .  S
C753        C754   1.404   1_455  A
C753        H764   1.083       .  S
C754        C755   1.412   1_655  A
C755        C756   1.408       .  A
C755        H765   1.084       .  S
C756        C757   1.411   1_455  A
C757        H766   1.085       .  S
C758        C759   1.411       .  A
C758        H767   1.083       .  S
C759        C760   1.415       .  A
C760        H768   1.084       .  S
C769        C770   1.398   1_455  A
C769        C774   1.403       .  A
C769        H785   1.083       .  S
C770        C771   1.404       .  A
C770        H786   1.084       .  S
C771        C781   1.401       .  A
C771        C772   1.409       .  A
C772        C778   1.413       .  A
C772        C773   1.413       .  A
C773        C775   1.410       .  A
C773        C774   1.412   1_655  A
C774        C782   1.404       .  A
C775        C784   1.404   1_655  A
C775        C776   1.405       .  A
C776        C777   1.401       .  A
C776        H787   1.083       .  S
C777        C778   1.404       .  A
C777        H788   1.084       .  S
C778        C779   1.407       .  A
C779        C780   1.408       .  A
C779        H789   1.084       .  S
C780        C781   1.411       .  A
C781        H790   1.084       .  S
C782        C783   1.407       .  A
C782        H791   1.084       .  S
C783        C784   1.411       .  A
C784        H792   1.084       .  S
C793        C794   1.394       .  A
C793        C798   1.402       .  A
C793        H809   1.083       .  S
C794        C795   1.401       .  A
C794        H810   1.084       .  S
C795        C805   1.395       .  A
C795        C796   1.413       .  A
C796        C802   1.411       .  A
C796        C797   1.402       .  A
C797        C799   1.415       .  A
C797        C798   1.411       .  A
C798        C806   1.392       .  A
C799        C808   1.397       .  A
C799        C800   1.401       .  A
C800        C801   1.395       .  A
C800        H811   1.084       .  S
C801        C802   1.402       .  A
C801        H812   1.084       .  S
C802        C803   1.393       .  A
C803        C804   1.403       .  A
C803        H813   1.085       .  S
C804        C805   1.401       .  A
C805        H814   1.085       .  S
C806        C807   1.398       .  A
C806        H815   1.085       .  S
C807        C808   1.396       .  A
C808        H816   1.085       .  S
C817        C818   1.398       .  A
C817        C822   1.404       .  A
C817        H833   1.083       .  S
C818        C819   1.402       .  A
C818        H834   1.084       .  S
C819        C829   1.402       .  A
C819        C820   1.413       .  A
C820        C826   1.411       .  A
C820        C821   1.413       .  A
C821        C823   1.414       .  A
C821        C822   1.409       .  A
C822        C830   1.399       .  A
C823        C832   1.410       .  A
C823        C824   1.404       .  A
C824        C825   1.402       .  A
C824        H835   1.082       .  S
C825        C826   1.405       .  A
C825        H836   1.084       .  S
C826        C827   1.406       .  A
C827        C828   1.408       .  A
C827        H837   1.085       .  S
C828        C829   1.405       .  A
C829        H838   1.085       .  S
C830        C831   1.410       .  A
C830        H839   1.085       .  S
C831        C832   1.406       .  A
C832        H840   1.083       .  S
C841        C842   1.405   1_554  A
C841        C846   1.407       .  A
C841        H857   1.084       .  S
C842        C843   1.406       .  A
C842        H858   1.083   1_556  S
C843        C853   1.418       .  A
C843        C844   1.414       .  A
C844        C850   1.408       .  A
C844        C845   1.422       .  A
C845        C847   1.414       .  A
C845        C846   1.410   1_556  A
C846        C854   1.413       .  A
C847        C856   1.411   1_556  A
C847        C848   1.404       .  A
C848        C849   1.401       .  A
C848        H859   1.084       .  S
C849        C850   1.405       .  A
C849        H860   1.083       .  S
C850        C851   1.406       .  A
C851        C852   1.416       .  A
C851        H861   1.083       .  S
C852        C853   1.412       .  A
C853        H862   1.084       .  S
C854        C855   1.412       .  A
C854        H863   1.085       .  S
C855        C856   1.407       .  A
C856        H864   1.085   1_554  S
C865        C866   1.395       .  A
C865        C870   1.403       .  A
C865        H881   1.083       .  S
C866        C867   1.401       .  A
C866        H882   1.084       .  S
C867        C877   1.396       .  A
C867        C868   1.416       .  A
C868        C874   1.410       .  A
C868        C869   1.399       .  A
C869        C871   1.415       .  A
C869        C870   1.410       .  A
C870        C878   1.390       .  A
C871        C880   1.393       .  A
C871        C872   1.400       .  A
C872        C873   1.392       .  A
C872        H883   1.084       .  S
C873        C874   1.401       .  A
C873        H884   1.084       .  S
C874        C875   1.387       .  A
C875        C876   1.396       .  A
C875        H885   1.086       .  S
C876        C877   1.395       .  A
C877        H886   1.085       .  S
C878        C879   1.401       .  A
C878        H887   1.085       .  S
C879        C880   1.395       .  A
C880        H888   1.085       .  S
C889        C890   1.401       .  A
C889        C894   1.404       .  A
C889        H905   1.084       .  S
C890        C891   1.405       .  A
C890        H906   1.083       .  S
C891        C901   1.404       .  A
C891        C892   1.408       .  A
C892        C898   1.415       .  A
C892        C893   1.417       .  A
C893        C895   1.407       .  A
C893        C894   1.415       .  A
C894        C902   1.412       .  A
C895        C904   1.403       .  A
C895        C896   1.405       .  A
C896        C897   1.400       .  A
C896        H907   1.083       .  S
C897        C898   1.403       .  A
C897        H908   1.084       .  S
C898        C899   1.411       .  A
C899        C900   1.405       .  A
C899        H909   1.085       .  S
C900        C901   1.410       .  A
C901        H910   1.085       .  S
C902        C903   1.409       .  A
C902        H911   1.084       .  S
C903        C904   1.414       .  A
C904        H912   1.084       .  S
C913        C914   1.398       .  A
C913        C918   1.404       .  A
C913        H929   1.083       .  S
C914        C915   1.403       .  A
C914        H930   1.084       .  S
C915        C925   1.405       .  A
C915        C916   1.414       .  A
C916        C922   1.410       .  A
C916        C917   1.415       .  A
C917        C919   1.416       .  A
C917        C918   1.409       .  A
C918        C926   1.398       .  A
C919        C928   1.413       .  A
C919        C920   1.404       .  A
C920        C921   1.403       .  A
C920        H931   1.084       .  S
C921        C922   1.406       .  A
C921        H932   1.083       .  S
C922        C923   1.407       .  A
C923        C924   1.409       .  A
C923        H933   1.084       .  S
C924        C925   1.404       .  A
C925        H934   1.085       .  S
C926        C927   1.407       .  A
C926        H935   1.085       .  S
C927        C928   1.405       .  A
C928        H936   1.085       .  S
C937        C938   1.403       .  A
C937        C942   1.405       .  A
C937        H953   1.083       .  S
C938        C939   1.405       .  A
C938        H954   1.084       .  S
C939        C949   1.410       .  A
C939        C940   1.410       .  A
C940        C946   1.414       .  A
C940        C941   1.421       .  A
C941        C943   1.409       .  A
C941        C942   1.414       .  A
C942        C950   1.415       .  A
C943        C952   1.408       .  A
C943        C944   1.406       .  A
C944        C945   1.402       .  A
C944        H955   1.084       .  S
C945        C946   1.405       .  A
C945        H956   1.084       .  S
C946        C947   1.413       .  A
C947        C948   1.409       .  A
C947        H957   1.084       .  S
C948        C949   1.409       .  A
C949        H958   1.085       .  S
C950        C951   1.410       .  A
C950        H959   1.084       .  S
C951        C952   1.415       .  A
C952        H960   1.084       .  S
C961        C962   1.399       .  A
C961        C966   1.403       .  A
C961        H977   1.084   1_556  S
C962        C963   1.403       .  A
C962        H978   1.083       .  S
C963        C973   1.403       .  A
C963        C964   1.412       .  A
C964        C970   1.412       .  A
C964        C965   1.413       .  A
C965        C967   1.412       .  A
C965        C966   1.413       .  A
C966        C974   1.404       .  A
C967        C976   1.404       .  A
C967        C968   1.404       .  A
C968        C969   1.400       .  A
C968        H979   1.083       .  S
C969        C970   1.404       .  A
C969        H980   1.084       .  S
C970        C971   1.405       .  A
C971        C972   1.405       .  A
C971        H981   1.086       .  S
C972        C973   1.404       .  A
C973        H982   1.084       .  S
C974        C975   1.402       .  A
C974        H983   1.084   1_556  S
C975        C976   1.406       .  A
C976        H984   1.085       .  S
C985        C986   1.395       .  A
C985        C990   1.401       .  A
C985       H1001   1.084       .  S
C986        C987   1.403       .  A
C986       H1002   1.084       .  S
C987        C997   1.393       .  A
C987        C988   1.409       .  A
C988        C994   1.413       .  A
C988        C989   1.402       .  A
C989        C991   1.411       .  A
C989        C990   1.415       .  A
C990        C998   1.398       .  A
C991       C1000   1.391       .  A
C991        C992   1.402       .  A
C992        C993   1.394       .  A
C992       H1003   1.084       .  S
C993        C994   1.401       .  A
C993       H1004   1.084       .  S
C994        C995   1.396       .  A
C995        C996   1.402       .  A
C995       H1005   1.084       .  S
C996        C997   1.407       .  A
C997       H1006   1.084       .  S
C998        C999   1.396       .  A
C998       H1007   1.085       .  S
C999       C1000   1.398       .  A
C1000      H1008   1.086       .  S
C1009      C1010   1.394       .  A
C1009      C1014   1.402       .  A
C1009      H1025   1.084       .  S
C1010      C1011   1.402       .  A
C1010      H1026   1.084       .  S
C1011      C1021   1.392       .  A
C1011      C1012   1.412       .  A
C1012      C1018   1.412       .  A
C1012      C1013   1.402       .  A
C1013      C1015   1.414       .  A
C1013      C1014   1.412       .  A
C1014      C1022   1.392       .  A
C1015      C1024   1.396       .  A
C1015      C1016   1.402       .  A
C1016      C1017   1.395       .  A
C1016      H1027   1.083       .  S
C1017      C1018   1.402       .  A
C1017      H1028   1.084       .  S
C1018      C1019   1.396       .  A
C1019      C1020   1.402       .  A
C1019      H1029   1.085       .  S
C1020      C1021   1.402       .  A
C1021      H1030   1.085       .  S
C1022      C1023   1.398       .  A
C1022      H1031   1.086       .  S
C1023      C1024   1.397       .  A
C1024      H1032   1.084       .  S
C1033      C1034   1.404       .  A
C1033      C1038   1.406       .  A
C1033      H1049   1.084       .  S
C1034      C1035   1.405       .  A
C1034      H1050   1.083       .  S
C1035      C1045   1.416       .  A
C1035      C1036   1.414       .  A
C1036      C1042   1.409       .  A
C1036      C1037   1.421       .  A
C1037      C1039   1.414       .  A
C1037      C1038   1.411       .  A
C1038      C1046   1.411       .  A
C1039      C1048   1.411   1_565  A
C1039      C1040   1.404       .  A
C1040      C1041   1.402       .  A
C1040      H1051   1.084   1_565  S
C1041      C1042   1.406       .  A
C1041      H1052   1.083       .  S
C1042      C1043   1.407       .  A
C1043      C1044   1.415       .  A
C1043      H1053   1.084       .  S
C1044      C1045   1.410       .  A
C1045      H1054   1.083       .  S
C1046      C1047   1.410   1_565  A
C1046      H1055   1.085       .  S
C1047      C1048   1.407       .  A
C1048      H1056   1.085       .  S
C1057      C1058   1.397       .  A
C1057      C1062   1.403       .  A
C1057      H1073   1.084       .  S
C1058      C1059   1.403       .  A
C1058      H1074   1.084       .  S
C1059      C1069   1.400       .  A
C1059      C1060   1.410       .  A
C1060      C1066   1.412       .  A
C1060      C1061   1.411       .  A
C1061      C1063   1.410       .  A
C1061      C1062   1.411       .  A
C1062      C1070   1.401   1_554  A
C1063      C1072   1.404   1_554  A
C1063      C1064   1.404       .  A
C1064      C1065   1.400       .  A
C1064      H1075   1.084       .  S
C1065      C1066   1.404       .  A
C1065      H1076   1.083       .  S
C1066      C1067   1.405       .  A
C1067      C1068   1.408       .  A
C1067      H1077   1.084       .  S
C1068      C1069   1.408       .  A
C1069      H1078   1.084       .  S
C1070      C1071   1.407       .  A
C1070      H1079   1.084       .  S
C1071      C1072   1.410       .  A
C1072      H1080   1.084       .  S
C1081      C1082   1.398       .  A
C1081      C1086   1.404       .  A
C1081      H1097   1.084       .  S
C1082      C1083   1.402       .  A
C1082      H1098   1.083   1_554  S
C1083      C1093   1.405       .  A
C1083      C1084   1.414       .  A
C1084      C1090   1.411       .  A
C1084      C1085   1.415       .  A
C1085      C1087   1.414       .  A
C1085      C1086   1.410       .  A
C1086      C1094   1.400       .  A
C1087      C1096   1.411       .  A
C1087      C1088   1.405       .  A
C1088      C1089   1.403       .  A
C1088      H1099   1.083       .  S
C1089      C1090   1.405       .  A
C1089      H1100   1.084       .  S
C1090      C1091   1.407   1_565  A
C1091      C1092   1.408       .  A
C1091      H1101   1.085       .  S
C1092      C1093   1.403   1_545  A
C1093      H1102   1.084   1_554  S
C1094      C1095   1.407       .  A
C1094      H1103   1.085       .  S
C1095      C1096   1.407       .  A
C1096      H1104   1.084       .  S
C1105      C1106   1.401       .  A
C1105      C1110   1.405       .  A
C1105      H1121   1.083       .  S
C1106      C1107   1.404       .  A
C1106      H1122   1.084   1_455  S
C1107      C1117   1.408   1_556  A
C1107      C1108   1.415       .  A
C1108      C1114   1.411   1_556  A
C1108      C1109   1.413       .  A
C1109      C1111   1.413       .  A
C1109      C1110   1.411       .  A
C1110      C1118   1.405       .  A
C1111      C1120   1.404       .  A
C1111      C1112   1.404       .  A
C1112      C1113   1.398   1_556  A
C1112      H1123   1.084       .  S
C1113      C1114   1.403       .  A
C1113      H1124   1.084       .  S
C1114      C1115   1.400       .  A
C1115      C1116   1.403       .  A
C1115      H1125   1.085       .  S
C1116      C1117   1.403       .  A
C1117      H1126   1.084   1_455  S
C1118      C1119   1.407       .  A
C1118      H1127   1.084       .  S
C1119      C1120   1.404       .  A
C1120      H1128   1.085       .  S
C1129      C1130   1.402   1_556  A
C1129      C1134   1.405       .  A
C1129      H1145   1.084   1_556  S
C1130      C1131   1.405       .  A
C1130      H1146   1.083       .  S
C1131      C1141   1.409       .  A
C1131      C1132   1.412   1_554  A
C1132      C1138   1.412       .  A
C1132      C1133   1.419       .  A
C1133      C1135   1.413       .  A
C1133      C1134   1.410       .  A
C1134      C1142   1.408       .  A
C1135      C1144   1.412       .  A
C1135      C1136   1.404       .  A
C1136      C1137   1.403       .  A
C1136      H1147   1.083       .  S
C1137      C1138   1.405       .  A
C1137      H1148   1.083       .  S
C1138      C1139   1.410       .  A
C1139      C1140   1.408   1_556  A
C1139      H1149   1.084       .  S
C1140      C1141   1.409       .  A
C1141      H1150   1.085       .  S
C1142      C1143   1.414       .  A
C1142      H1151   1.085       .  S
C1143      C1144   1.410       .  A
C1144      H1152   1.083       .  S
C1153      C1154   1.405   1_565  A
C1153      C1158   1.406       .  A
C1153      H1169   1.084       .  S
C1154      C1155   1.407       .  A
C1154      H1170   1.083       .  S
C1155      C1165   1.411       .  A
C1155      C1156   1.409   1_545  A
C1156      C1162   1.414       .  A
C1156      C1157   1.420       .  A
C1157      C1159   1.408       .  A
C1157      C1158   1.415       .  A
C1158      C1166   1.418       .  A
C1159      C1168   1.404       .  A
C1159      C1160   1.405       .  A
C1160      C1161   1.400       .  A
C1160      H1171   1.083       .  S
C1161      C1162   1.403       .  A
C1161      H1172   1.083       .  S
C1162      C1163   1.410       .  A
C1163      C1164   1.406   1_565  A
C1163      H1173   1.084       .  S
C1164      C1165   1.413       .  A
C1165      H1174   1.085       .  S
C1166      C1167   1.413       .  A
C1166      H1175   1.084       .  S
C1167      C1168   1.414       .  A
C1168      H1176   1.083       .  S
C1177      C1178   1.400   1_556  A
C1177      C1182   1.404       .  A
C1177      H1193   1.084       .  S
C1178      C1179   1.403       .  A
C1178      H1194   1.083       .  S
C1179      C1189   1.407       .  A
C1179      C1180   1.413   1_554  A
C1180      C1186   1.410       .  A
C1180      C1181   1.415       .  A
C1181      C1183   1.413       .  A
C1181      C1182   1.409       .  A
C1182      C1190   1.403       .  A
C1183      C1192   1.408       .  A
C1183      C1184   1.404       .  A
C1184      C1185   1.401       .  A
C1184      H1195   1.083       .  S
C1185      C1186   1.405       .  A
C1185      H1196   1.084       .  S
C1186      C1187   1.404   1_556  A
C1187      C1188   1.410       .  A
C1187      H1197   1.084       .  S
C1188      C1189   1.407       .  A
C1189      H1198   1.084       .  S
C1190      C1191   1.410       .  A
C1190      H1199   1.084       .  S
C1191      C1192   1.409       .  A
C1192      H1200   1.084       .  S
C1201      C1202   1.401       .  A
C1201      C1206   1.404       .  A
C1201      H1217   1.084       .  S
C1202      C1203   1.405       .  A
C1202      H1218   1.083       .  S
C1203      C1213   1.404       .  A
C1203      C1204   1.410       .  A
C1204      C1210   1.415       .  A
C1204      C1205   1.414       .  A
C1205      C1207   1.409       .  A
C1205      C1206   1.415       .  A
C1206      C1214   1.410       .  A
C1207      C1216   1.399       .  A
C1207      C1208   1.404       .  A
C1208      C1209   1.398       .  A
C1208      H1219   1.083       .  S
C1209      C1210   1.402       .  A
C1209      H1220   1.084       .  S
C1210      C1211   1.406       .  A
C1211      C1212   1.402       .  A
C1211      H1221   1.084       .  S
C1212      C1213   1.408       .  A
C1213      H1222   1.085       .  S
C1214      C1215   1.405       .  A
C1214      H1223   1.084       .  S
C1215      C1216   1.406       .  A
C1216      H1224   1.085       .  S
C1225      C1226   1.393       .  A
C1225      C1230   1.402       .  A
C1225      H1241   1.084       .  S
C1226      C1227   1.400       .  A
C1226      H1242   1.084       .  S
C1227      C1237   1.394       .  A
C1227      C1228   1.414       .  A
C1228      C1234   1.412       .  A
C1228      C1229   1.401       .  A
C1229      C1231   1.414       .  A
C1229      C1230   1.410       .  A
C1230      C1238   1.390       .  A
C1231      C1240   1.396       .  A
C1231      C1232   1.402       .  A
C1232      C1233   1.395       .  A
C1232      H1243   1.084       .  S
C1233      C1234   1.402       .  A
C1233      H1244   1.084       .  S
C1234      C1235   1.393       .  A
C1235      C1236   1.398       .  A
C1235      H1245   1.085       .  S
C1236      C1237   1.395       .  A
C1237      H1246   1.085       .  S
C1238      C1239   1.401       .  A
C1238      H1247   1.085       .  S
C1239      C1240   1.400       .  A
C1240      H1248   1.085       .  S
C1249      C1250   1.404       .  A
C1249      C1254   1.406       .  A
C1249      H1265   1.083       .  S
C1250      C1251   1.405       .  A
C1250      H1266   1.084       .  S
C1251      C1261   1.416       .  A
C1251      C1252   1.414       .  A
C1252      C1258   1.408       .  A
C1252      C1253   1.419       .  A
C1253      C1255   1.414       .  A
C1253      C1254   1.410       .  A
C1254      C1262   1.411       .  A
C1255      C1264   1.409       .  A
C1255      C1256   1.403       .  A
C1256      C1257   1.400       .  A
C1256      H1267   1.084       .  S
C1257      C1258   1.405       .  A
C1257      H1268   1.083       .  S
C1258      C1259   1.404       .  A
C1259      C1260   1.415       .  A
C1259      H1269   1.083       .  S
C1260      C1261   1.410       .  A
C1261      H1270   1.084       .  S
C1262      C1263   1.409       .  A
C1262      H1271   1.084       .  S
C1263      C1264   1.407       .  A
C1264      H1272   1.085       .  S
C1273      C1274   1.400       .  A
C1273      C1278   1.404   1_565  A
C1273      H1289   1.084       .  S
C1274      C1275   1.403       .  A
C1274      H1290   1.083       .  S
C1275      C1285   1.407       .  A
C1275      C1276   1.414       .  A
C1276      C1282   1.408       .  A
C1276      C1277   1.412   1_565  A
C1277      C1279   1.413       .  A
C1277      C1278   1.409       .  A
C1278      C1286   1.401       .  A
C1279      C1288   1.404       .  A
C1279      C1280   1.403       .  A
C1280      C1281   1.398       .  A
C1280      H1291   1.083       .  S
C1281      C1282   1.404   1_545  A
C1281      H1292   1.084       .  S
C1282      C1283   1.398       .  A
C1283      C1284   1.411       .  A
C1283      H1293   1.085       .  S
C1284      C1285   1.407       .  A
C1285      H1294   1.083       .  S
C1286      C1287   1.410       .  A
C1286      H1295   1.085       .  S
C1287      C1288   1.406       .  A
C1288      H1296   1.083       .  S
C1297      C1298   1.403       .  A
C1297      C1302   1.405       .  A
C1297      H1313   1.083       .  S
C1298      C1299   1.405       .  A
C1298      H1314   1.084       .  S
C1299      C1309   1.411       .  A
C1299      C1300   1.414       .  A
C1300      C1306   1.409       .  A
C1300      C1301   1.413       .  A
C1301      C1303   1.412       .  A
C1301      C1302   1.411       .  A
C1302      C1310   1.408       .  A
C1303      C1312   1.400       .  A
C1303      C1304   1.402       .  A
C1304      C1305   1.396       .  A
C1304      H1315   1.084       .  S
C1305      C1306   1.403       .  A
C1305      H1316   1.083       .  S
C1306      C1307   1.399       .  A
C1307      C1308   1.408       .  A
C1307      H1317   1.084       .  S
C1308      C1309   1.408       .  A
C1309      H1318   1.085       .  S
C1310      C1311   1.410       .  A
C1310      H1319   1.083       .  S
C1311      C1312   1.405       .  A
C1312      H1320   1.085       .  S
C1321      C1322   1.398       .  A
C1321      C1326   1.403       .  A
C1321      H1337   1.083       .  S
C1322      C1323   1.402       .  A
C1322      H1338   1.084       .  S
C1323      C1333   1.401       .  A
C1323      C1324   1.413       .  A
C1324      C1330   1.412       .  A
C1324      C1325   1.409       .  A
C1325      C1327   1.413       .  A
C1325      C1326   1.412       .  A
C1326      C1334   1.400       .  A
C1327      C1336   1.402       .  A
C1327      C1328   1.403       .  A
C1328      C1329   1.398       .  A
C1328      H1339   1.083       .  S
C1329      C1330   1.403       .  A
C1329      H1340   1.084       .  S
C1330      C1331   1.401       .  A
C1331      C1332   1.402       .  A
C1331      H1341   1.085       .  S
C1332      C1333   1.402       .  A
C1333      H1342   1.085       .  S
C1334      C1335   1.404       .  A
C1334      H1343   1.084       .  S
C1335      C1336   1.403       .  A
C1336      H1344   1.085       .  S
C1345      C1346   1.406       .  A
C1345      C1350   1.406       .  A
C1345      H1361   1.083       .  S
C1346      C1347   1.407       .  A
C1346      H1362   1.084       .  S
C1347      C1357   1.416       .  A
C1347      C1348   1.411       .  A
C1348      C1354   1.413       .  A
C1348      C1349   1.423       .  A
C1349      C1351   1.409       .  A
C1349      C1350   1.414       .  A
C1350      C1358   1.420       .  A
C1351      C1360   1.407       .  A
C1351      C1352   1.406       .  A
C1352      C1353   1.401       .  A
C1352      H1363   1.084       .  S
C1353      C1354   1.404       .  A
C1353      H1364   1.083       .  S
C1354      C1355   1.411       .  A
C1355      C1356   1.409       .  A
C1355      H1365   1.084       .  S
C1356      C1357   1.412       .  A
C1357      H1366   1.084       .  S
C1358      C1359   1.413       .  A
C1358      H1367   1.083       .  S
C1359      C1360   1.416       .  A
C1360      H1368   1.084       .  S
C1369      C1370   1.398       .  A
C1369      C1374   1.403       .  A
C1369      H1385   1.083       .  S
C1370      C1371   1.404       .  A
C1370      H1386   1.084       .  S
C1371      C1381   1.402       .  A
C1371      C1372   1.409       .  A
C1372      C1378   1.413       .  A
C1372      C1373   1.420       .  A
C1373      C1375   1.412       .  A
C1373      C1374   1.412       .  A
C1374      C1382   1.405       .  A
C1375      C1384   1.415       .  A
C1375      C1376   1.407       .  A
C1376      C1377   1.406       .  A
C1376      H1387   1.083       .  S
C1377      C1378   1.406       .  A
C1377      H1388   1.083       .  S
C1378      C1379   1.417       .  A
C1379      C1380   1.412       .  A
C1379      H1389   1.083       .  S
C1380      C1381   1.413       .  A
C1381      H1390   1.084       .  S
C1382      C1383   1.407       .  A
C1382      H1391   1.084       .  S
C1383      C1384   1.411       .  A
C1384      H1392   1.084       .  S
C1393      C1394   1.401       .  A
C1393      C1398   1.404       .  A
C1393      H1409   1.084   1_565  S
C1394      C1395   1.405       .  A
C1394      H1410   1.084       .  S
C1395      C1405   1.405       .  A
C1395      C1396   1.410       .  A
C1396      C1402   1.412       .  A
C1396      C1397   1.413       .  A
C1397      C1399   1.410       .  A
C1397      C1398   1.412       .  A
C1398      C1406   1.406   1_565  A
C1399      C1408   1.400       .  A
C1399      C1400   1.403       .  A
C1400      C1401   1.397       .  A
C1400      H1411   1.084       .  S
C1401      C1402   1.403       .  A
C1401      H1412   1.083       .  S
C1402      C1403   1.402       .  A
C1403      C1404   1.407       .  A
C1403      H1413   1.084       .  S
C1404      C1405   1.411       .  A
C1405      H1414   1.084       .  S
C1406      C1407   1.409       .  A
C1406      H1415   1.084       .  S
C1407      C1408   1.408   1_545  A
C1408      H1416   1.084       .  S
C1417      C1418   1.399       .  A
C1417      C1422   1.403       .  A
C1417      H1433   1.084       .  S
C1418      C1419   1.404       .  A
C1418      H1434   1.084       .  S
C1419      C1429   1.404       .  A
C1419      C1420   1.412       .  A
C1420      C1426   1.412       .  A
C1420      C1421   1.414       .  A
C1421      C1423   1.412       .  A
C1421      C1422   1.412       .  A
C1422      C1430   1.405       .  A
C1423      C1432   1.406       .  A
C1423      C1424   1.405       .  A
C1424      C1425   1.402       .  A
C1424      H1435   1.084   1_565  S
C1425      C1426   1.405       .  A
C1425      H1436   1.083       .  S
C1426      C1427   1.408       .  A
C1427      C1428   1.407       .  A
C1427      H1437   1.084       .  S
C1428      C1429   1.406       .  A
C1429      H1438   1.084       .  S
C1430      C1431   1.405       .  A
C1430      H1439   1.084       .  S
C1431      C1432   1.408       .  A
C1432      H1440   1.085       .  S
C1441      C1442   1.396       .  A
C1441      C1446   1.403       .  A
C1441      H1457   1.083       .  S
C1442      C1443   1.401       .  A
C1442      H1458   1.084       .  S
C1443      C1453   1.398       .  A
C1443      C1444   1.415       .  A
C1444      C1450   1.412       .  A
C1444      C1445   1.404       .  A
C1445      C1447   1.412       .  A
C1445      C1446   1.411       .  A
C1446      C1454   1.397       .  A
C1447      C1456   1.395       .  A
C1447      C1448   1.402       .  A
C1448      C1449   1.394       .  A
C1448      H1459   1.084       .  S
C1449      C1450   1.401       .  A
C1449      H1460   1.084       .  S
C1450      C1451   1.392       .  A
C1451      C1452   1.399       .  A
C1451      H1461   1.086       .  S
C1452      C1453   1.397       .  A
C1453      H1462   1.085       .  S
C1454      C1455   1.404       .  A
C1454      H1463   1.084       .  S
C1455      C1456   1.405       .  A
C1456      H1464   1.085       .  S
C1465      C1466   1.401       .  A
C1465      C1470   1.405       .  A
C1465      H1481   1.084       .  S
C1466      C1467   1.404       .  A
C1466      H1482   1.083       .  S
C1467      C1477   1.411       .  A
C1467      C1468   1.414       .  A
C1468      C1474   1.410       .  A
C1468      C1469   1.418       .  A
C1469      C1471   1.414       .  A
C1469      C1470   1.409       .  A
C1470      C1478   1.406       .  A
C1471      C1480   1.411       .  A
C1471      C1472   1.404       .  A
C1472      C1473   1.402       .  A
C1472      H1483   1.084       .  S
C1473      C1474   1.405       .  A
C1473      H1484   1.083       .  S
C1474      C1475   1.407       .  A
C1475      C1476   1.409       .  A
C1475      H1485   1.085       .  S
C1476      C1477   1.406       .  A
C1477      H1486   1.084       .  S
C1478      C1479   1.413       .  A
C1478      H1487   1.084       .  S
C1479      C1480   1.408       .  A
C1480      H1488   1.084       .  S
C1489      C1490   1.402   1_554  A
C1489      C1494   1.404       .  A
C1489      H1505   1.083       .  S
C1490      C1491   1.406       .  A
C1490      H1506   1.084       .  S
C1491      C1501   1.406       .  A
C1491      C1492   1.409   1_556  A
C1492      C1498   1.415       .  A
C1492      C1493   1.418       .  A
C1493      C1495   1.408       .  A
C1493      C1494   1.415       .  A
C1494      C1502   1.413       .  A
C1495      C1504   1.403       .  A
C1495      C1496   1.405       .  A
C1496      C1497   1.400       .  A
C1496      H1507   1.084       .  S
C1497      C1498   1.403       .  A
C1497      H1508   1.083       .  S
C1498      C1499   1.411   1_554  A
C1499      C1500   1.406       .  A
C1499      H1509   1.084       .  S
C1500      C1501   1.411       .  A
C1501      H1510   1.085       .  S
C1502      C1503   1.409       .  A
C1502      H1511   1.084       .  S
C1503      C1504   1.414       .  A
C1504      H1512   1.084       .  S
C1513      C1514   1.399       .  A
C1513      C1518   1.403       .  A
C1513      H1529   1.084       .  S
C1514      C1515   1.404       .  A
C1514      H1530   1.083       .  S
C1515      C1525   1.400       .  A
C1515      C1516   1.409       .  A
C1516      C1522   1.413       .  A
C1516      C1517   1.410       .  A
C1517      C1519   1.408       .  A
C1517      C1518   1.413       .  A
C1518      C1526   1.405       .  A
C1519      C1528   1.398       .  A
C1519      C1520   1.404       .  A
C1520      C1521   1.397       .  A
C1520      H1531   1.084       .  S
C1521      C1522   1.402       .  A
C1521      H1532   1.084       .  S
C1522      C1523   1.402       .  A
C1523      C1524   1.406       .  A
C1523      H1533   1.084       .  S
C1524      C1525   1.409       .  A
C1525      H1534   1.084       .  S
C1526      C1527   1.406       .  A
C1526      H1535   1.084       .  S
C1527      C1528   1.410       .  A
C1528      H1536   1.084       .  S
C1537      C1538   1.397       .  A
C1537      C1542   1.403       .  A
C1537      H1553   1.084       .  S
C1538      C1539   1.402       .  A
C1538      H1554   1.084       .  S
C1539      C1549   1.402       .  A
C1539      C1540   1.415       .  A
C1540      C1546   1.410       .  A
C1540      C1541   1.411       .  A
C1541      C1543   1.415       .  A
C1541      C1542   1.409       .  A
C1542      C1550   1.396       .  A
C1543      C1552   1.407       .  A
C1543      C1544   1.403       .  A
C1544      C1545   1.400       .  A
C1544      H1555   1.084       .  S
C1545      C1546   1.404       .  A
C1545      H1556   1.083       .  S
C1546      C1547   1.402       .  A
C1547      C1548   1.405       .  A
C1547      H1557   1.084       .  S
C1548      C1549   1.401       .  A
C1549      H1558   1.085       .  S
C1550      C1551   1.407       .  A
C1550      H1559   1.086       .  S
C1551      C1552   1.402       .  A
C1552      H1560   1.084       .  S
C1561      C1562   1.400       .  A
C1561      C1566   1.404       .  A
C1561      H1577   1.083       .  S
C1562      C1563   1.404       .  A
C1562      H1578   1.084       .  S
C1563      C1573   1.406       .  A
C1563      C1564   1.414       .  A
C1564      C1570   1.411       .  A
C1564      C1565   1.412       .  A
C1565      C1567   1.414       .  A
C1565      C1566   1.412       .  A
C1566      C1574   1.403       .  A
C1567      C1576   1.404       .  A
C1567      C1568   1.403       .  A
C1568      C1569   1.399       .  A
C1568      H1579   1.083       .  S
C1569      C1570   1.404       .  A
C1569      H1580   1.084       .  S
C1570      C1571   1.401       .  A
C1571      C1572   1.405       .  A
C1571      H1581   1.086       .  S
C1572      C1573   1.403       .  A
C1573      H1582   1.085       .  S
C1574      C1575   1.404       .  A
C1574      H1583   1.085       .  S
C1575      C1576   1.402       .  A
C1576      H1584   1.084       .  S
C1585      C1586   1.403       .  A
C1585      C1590   1.405       .  A
C1585      H1601   1.083       .  S
C1586      C1587   1.406       .  A
C1586      H1602   1.084       .  S
C1587      C1597   1.409       .  A
C1587      C1588   1.408       .  A
C1588      C1594   1.414       .  A
C1588      C1589   1.424       .  A
C1589      C1591   1.410       .  A
C1589      C1590   1.414       .  A
C1590      C1598   1.415       .  A
C1591      C1600   1.414       .  A
C1591      C1592   1.407       .  A
C1592      C1593   1.406       .  A
C1592      H1603   1.084       .  S
C1593      C1594   1.406       .  A
C1593      H1604   1.083       .  S
C1594      C1595   1.419       .  A
C1595      C1596   1.413       .  A
C1595      H1605   1.083       .  S
C1596      C1597   1.416       .  A
C1597      H1606   1.084       .  S
C1598      C1599   1.409       .  A
C1598      H1607   1.084       .  S
C1599      C1600   1.413       .  A
C1600      H1608   1.085       .  S
C1609      C1610   1.403       .  A
C1609      C1614   1.405       .  A
C1609      H1625   1.083       .  S
C1610      C1611   1.406       .  A
C1610      H1626   1.083       .  S
C1611      C1621   1.408       .  A
C1611      C1612   1.409       .  A
C1612      C1618   1.415       .  A
C1612      C1613   1.419       .  A
C1613      C1615   1.408       .  A
C1613      C1614   1.415       .  A
C1614      C1622   1.415       .  A
C1615      C1624   1.405       .  A
C1615      C1616   1.405       .  A
C1616      C1617   1.401       .  A
C1616      H1627   1.083       .  S
C1617      C1618   1.404       .  A
C1617      H1628   1.084   1_554  S
C1618      C1619   1.411   1_554  A
C1619      C1620   1.406       .  A
C1619      H1629   1.085       .  S
C1620      C1621   1.410   1_556  A
C1621      H1630   1.085       .  S
C1622      C1623   1.410       .  A
C1622      H1631   1.084       .  S
C1623      C1624   1.414       .  A
C1624      H1632   1.084       .  S
C1633      C1634   1.400       .  A
C1633      C1638   1.404       .  A
C1633      H1649   1.083       .  S
C1634      C1635   1.404       .  A
C1634      H1650   1.084       .  S
C1635      C1645   1.402       .  A
C1635      C1636   1.410       .  A
C1636      C1642   1.413       .  A
C1636      C1637   1.410       .  A
C1637      C1639   1.408       .  A
C1637      C1638   1.413       .  A
C1638      C1646   1.407       .  A
C1639      C1648   1.395       .  A
C1639      C1640   1.403       .  A
C1640      C1641   1.395       .  A
C1640      H1651   1.084       .  S
C1641      C1642   1.402       .  A
C1641      H1652   1.084       .  S
C1642      C1643   1.400       .  A
C1643      C1644   1.404       .  A
C1643      H1653   1.084       .  S
C1644      C1645   1.409       .  A
C1645      H1654   1.085       .  S
C1646      C1647   1.407       .  A
C1646      H1655   1.084       .  S
C1647      C1648   1.408       .  A
C1648      H1656   1.084       .  S
C1657      C1658   1.399       .  A
C1657      C1662   1.403       .  A
C1657      H1673   1.084       .  S
C1658      C1659   1.405       .  A
C1658      H1674   1.084       .  S
C1659      C1669   1.402       .  A
C1659      C1660   1.409       .  A
C1660      C1666   1.415       .  A
C1660      C1661   1.417       .  A
C1661      C1663   1.411       .  A
C1661      C1662   1.415       .  A
C1662      C1670   1.407       .  A
C1663      C1672   1.407   1_554  A
C1663      C1664   1.405       .  A
C1664      C1665   1.403       .  A
C1664      H1675   1.084   1_554  S
C1665      C1666   1.405       .  A
C1665      H1676   1.084       .  S
C1666      C1667   1.414       .  A
C1667      C1668   1.408       .  A
C1667      H1677   1.084       .  S
C1668      C1669   1.409       .  A
C1669      H1678   1.085       .  S
C1670      C1671   1.402   1_554  A
C1670      H1679   1.084   1_554  S
C1671      C1672   1.408       .  A
C1672      H1680   1.085       .  S
C1681      C1682   1.392       .  A
C1681      C1686   1.401       .  A
C1681      H1697   1.085       .  S
C1682      C1683   1.401       .  A
C1682      H1698   1.083       .  S
C1683      C1693   1.391       .  A
C1683      C1684   1.413       .  A
C1684      C1690   1.410       .  A
C1684      C1685   1.399       .  A
C1685      C1687   1.416       .  A
C1685      C1686   1.410       .  A
C1686      C1694   1.385       .  A
C1687      C1696   1.396       .  A
C1687      C1688   1.401       .  A
C1688      C1689   1.395       .  A
C1688      H1699   1.084       .  S
C1689      C1690   1.403       .  A
C1689      H1700   1.084       .  S
C1690      C1691   1.391       .  A
C1691      C1692   1.403       .  A
C1691      H1701   1.085       .  S
C1692      C1693   1.400       .  A
C1693      H1702   1.084       .  S
C1694      C1695   1.396       .  A
C1694      H1703   1.086       .  S
C1695      C1696   1.395       .  A
C1696      H1704   1.084       .  S
C1705      C1706   1.400       .  A
C1705      C1710   1.403       .  A
C1705      H1721   1.084       .  S
C1706      C1707   1.405       .  A
C1706      H1722   1.083       .  S
C1707      C1717   1.402       .  A
C1707      C1708   1.409       .  A
C1708      C1714   1.415       .  A
C1708      C1709   1.414       .  A
C1709      C1711   1.410       .  A
C1709      C1710   1.415       .  A
C1710      C1718   1.407       .  A
C1711      C1720   1.403       .  A
C1711      C1712   1.404       .  A
C1712      C1713   1.400       .  A
C1712      H1723   1.083       .  S
C1713      C1714   1.404       .  A
C1713      H1724   1.083       .  S
C1714      C1715   1.409       .  A
C1715      C1716   1.405       .  A
C1715      H1725   1.084       .  S
C1716      C1717   1.409       .  A
C1717      H1726   1.085       .  S
C1718      C1719   1.402       .  A
C1718      H1727   1.085       .  S
C1719      C1720   1.404       .  A
C1720      H1728   1.084       .  S
C1729      C1730   1.402       .  A
C1729      C1734   1.404       .  A
C1729      H1745   1.084       .  S
C1730      C1731   1.406       .  A
C1730      H1746   1.083       .  S
C1731      C1741   1.405       .  A
C1731      C1732   1.408       .  A
C1732      C1738   1.415       .  A
C1732      C1733   1.419       .  A
C1733      C1735   1.408       .  A
C1733      C1734   1.414       .  A
C1734      C1742   1.413       .  A
C1735      C1744   1.406       .  A
C1735      C1736   1.405       .  A
C1736      C1737   1.402       .  A
C1736      H1747   1.083       .  S
C1737      C1738   1.403       .  A
C1737      H1748   1.083       .  S
C1738      C1739   1.413       .  A
C1739      C1740   1.405       .  A
C1739      H1749   1.084       .  S
C1740      C1741   1.412       .  A
C1741      H1750   1.085       .  S
C1742      C1743   1.410       .  A
C1742      H1751   1.084       .  S
C1743      C1744   1.413       .  A
C1744      H1752   1.084       .  S
C1753      C1754   1.399   1_565  A
C1753      C1758   1.403       .  A
C1753      H1769   1.084       .  S
C1754      C1755   1.405       .  A
C1754      H1770   1.084       .  S
C1755      C1765   1.402       .  A
C1755      C1756   1.407       .  A
C1756      C1762   1.415       .  A
C1756      C1757   1.419       .  A
C1757      C1759   1.409       .  A
C1757      C1758   1.414   1_545  A
C1758      C1766   1.409       .  A
C1759      C1768   1.409       .  A
C1759      C1760   1.406       .  A
C1760      C1761   1.404       .  A
C1760      H1771   1.084       .  S
C1761      C1762   1.405       .  A
C1761      H1772   1.083       .  S
C1762      C1763   1.417       .  A
C1763      C1764   1.411       .  A
C1763      H1773   1.083       .  S
C1764      C1765   1.415       .  A
C1765      H1774   1.084       .  S
C1766      C1767   1.405       .  A
C1766      H1775   1.085       .  S
C1767      C1768   1.411   1_565  A
C1768      H1776   1.085       .  S
C1777      C1778   1.400       .  A
C1777      C1782   1.404       .  A
C1777      H1793   1.084       .  S
C1778      C1779   1.403       .  A
C1778      H1794   1.083       .  S
C1779      C1789   1.407       .  A
C1779      C1780   1.414       .  A
C1780      C1786   1.409       .  A
C1780      C1781   1.412       .  A
C1781      C1783   1.412       .  A
C1781      C1782   1.410       .  A
C1782      C1790   1.403       .  A
C1783      C1792   1.402       .  A
C1783      C1784   1.403       .  A
C1784      C1785   1.397       .  A
C1784      H1795   1.084       .  S
C1785      C1786   1.403       .  A
C1785      H1796   1.084       .  S
C1786      C1787   1.398       .  A
C1787      C1788   1.409       .  A
C1787      H1797   1.085       .  S
C1788      C1789   1.405       .  A
C1789      H1798   1.084       .  S
C1790      C1791   1.410       .  A
C1790      H1799   1.084       .  S
C1791      C1792   1.407       .  A
C1792      H1800   1.084       .  S
C1801      C1802   1.398       .  A
C1801      C1806   1.402       .  A
C1801      H1817   1.084       .  S
C1802      C1803   1.404       .  A
C1802      H1818   1.083       .  S
C1803      C1813   1.399       .  A
C1803      C1804   1.409       .  A
C1804      C1810   1.415       .  A
C1804      C1805   1.413       .  A
C1805      C1807   1.410       .  A
C1805      C1806   1.415       .  A
C1806      C1814   1.405       .  A
C1807      C1816   1.403   1_545  A
C1807      C1808   1.405       .  A
C1808      C1809   1.400       .  A
C1808      H1819   1.083   1_545  S
C1809      C1810   1.404       .  A
C1809      H1820   1.083       .  S
C1810      C1811   1.409       .  A
C1811      C1812   1.403       .  A
C1811      H1821   1.084       .  S
C1812      C1813   1.406       .  A
C1813      H1822   1.085       .  S
C1814      C1815   1.403   1_545  A
C1814      H1823   1.084       .  S
C1815      C1816   1.407       .  A
C1816      H1824   1.085       .  S
C1825      C1826   1.401       .  A
C1825      C1830   1.405       .  A
C1825      H1841   1.083       .  S
C1826      C1827   1.404       .  A
C1826      H1842   1.084       .  S
C1827      C1837   1.409       .  A
C1827      C1828   1.414       .  A
C1828      C1834   1.409       .  A
C1828      C1829   1.412       .  A
C1829      C1831   1.413       .  A
C1829      C1830   1.410       .  A
C1830      C1838   1.405       .  A
C1831      C1840   1.401       .  A
C1831      C1832   1.402       .  A
C1832      C1833   1.397       .  A
C1832      H1843   1.084       .  S
C1833      C1834   1.403       .  A
C1833      H1844   1.084       .  S
C1834      C1835   1.397       .  A
C1835      C1836   1.408       .  A
C1835      H1845   1.085       .  S
C1836      C1837   1.406       .  A
C1837      H1846   1.084       .  S
C1838      C1839   1.410       .  A
C1838      H1847   1.084       .  S
C1839      C1840   1.405       .  A
C1840      H1848   1.084       .  S
C1849      C1850   1.406       .  A
C1849      C1854   1.407       .  A
C1849      H1865   1.086       .  S
C1850      C1851   1.406       .  A
C1850      H1866   1.081       .  S
C1851      C1861   1.421       .  A
C1851      C1852   1.415       .  A
C1852      C1858   1.408       .  A
C1852      C1853   1.422       .  A
C1853      C1855   1.414       .  A
C1853      C1854   1.410       .  A
C1854      C1862   1.413       .  A
C1855      C1864   1.414       .  A
C1855      C1856   1.406       .  A
C1856      C1857   1.401       .  A
C1856      H1867   1.071       .  S
C1857      C1858   1.404       .  A
C1857      H1868   1.094   1_545  S
C1858      C1859   1.404       .  A
C1859      C1860   1.415       .  A
C1859      H1869   1.091       .  S
C1860      C1861   1.414       .  A
C1861      H1870   1.081       .  S
C1862      C1863   1.411       .  A
C1862      H1871   1.087       .  S
C1863      C1864   1.409       .  A
C1864      H1872   1.074       .  S
C1873      C1874   1.401       .  A
C1873      C1878   1.404       .  A
C1873      H1889   1.084       .  S
C1874      C1875   1.405       .  A
C1874      H1890   1.083       .  S
C1875      C1885   1.406       .  A
C1875      C1876   1.409       .  A
C1876      C1882   1.413       .  A
C1876      C1877   1.420       .  A
C1877      C1879   1.412   1_545  A
C1877      C1878   1.412       .  A
C1878      C1886   1.408       .  A
C1879      C1888   1.413       .  A
C1879      C1880   1.405       .  A
C1880      C1881   1.404       .  A
C1880      H1891   1.083       .  S
C1881      C1882   1.405   1_565  A
C1881      H1892   1.083       .  S
C1882      C1883   1.415       .  A
C1883      C1884   1.411       .  A
C1883      H1893   1.084       .  S
C1884      C1885   1.415       .  A
C1885      H1894   1.084       .  S
C1886      C1887   1.409   1_545  A
C1886      H1895   1.085       .  S
C1887      C1888   1.409       .  A
C1888      H1896   1.084       .  S
C1897      C1898   1.398       .  A
C1897      C1902   1.403       .  A
C1897      H1913   1.083       .  S
C1898      C1899   1.403       .  A
C1898      H1914   1.084       .  S
C1899      C1909   1.403       .  A
C1899      C1900   1.413       .  A
C1900      C1906   1.409       .  A
C1900      C1901   1.411       .  A
C1901      C1903   1.412       .  A
C1901      C1902   1.410       .  A
C1902      C1910   1.400       .  A
C1903      C1912   1.404       .  A
C1903      C1904   1.403       .  A
C1904      C1905   1.399       .  A
C1904      H1915   1.084       .  S
C1905      C1906   1.404       .  A
C1905      H1916   1.083       .  S
C1906      C1907   1.401       .  A
C1907      C1908   1.411       .  A
C1907      H1917   1.084       .  S
C1908      C1909   1.405       .  A
C1909      H1918   1.084       .  S
C1910      C1911   1.407       .  A
C1910      H1919   1.084       .  S
C1911      C1912   1.407       .  A
C1912      H1920   1.085       .  S
C1921      C1922   1.400       .  A
C1921      C1926   1.404       .  A
C1921      H1937   1.084       .  S
C1922      C1923   1.404       .  A
C1922      H1938   1.084       .  S
C1923      C1933   1.404       .  A
C1923      C1924   1.412       .  A
C1924      C1930   1.413       .  A
C1924      C1925   1.412       .  A
C1925      C1927   1.411       .  A
C1925      C1926   1.413       .  A
C1926      C1934   1.406       .  A
C1927      C1936   1.399       .  A
C1927      C1928   1.403       .  A
C1928      C1929   1.397       .  A
C1928      H1939   1.084       .  S
C1929      C1930   1.402       .  A
C1929      H1940   1.084       .  S
C1930      C1931   1.401       .  A
C1931      C1932   1.401       .  A
C1931      H1941   1.085       .  S
C1932      C1933   1.404       .  A
C1933      H1942   1.085       .  S
C1934      C1935   1.405       .  A
C1934      H1943   1.085       .  S
C1935      C1936   1.405       .  A
C1936      H1944   1.085       .  S
C1945      C1946   1.397       .  A
C1945      C1950   1.402       .  A
C1945      H1961   1.084       .  S
C1946      C1947   1.403       .  A
C1946      H1962   1.083       .  S
C1947      C1957   1.395       .  A
C1947      C1948   1.412       .  A
C1948      C1954   1.414       .  A
C1948      C1949   1.401       .  A
C1949      C1951   1.409       .  A
C1949      C1950   1.414       .  A
C1950      C1958   1.399       .  A
C1951      C1960   1.387       .  A
C1951      C1952   1.401       .  A
C1952      C1953   1.391       .  A
C1952      H1963   1.083       .  S
C1953      C1954   1.399       .  A
C1953      H1964   1.084       .  S
C1954      C1955   1.390       .  A
C1955      C1956   1.395       .  A
C1955      H1965   1.086       .  S
C1956      C1957   1.400       .  A
C1957      H1966   1.085       .  S
C1958      C1959   1.402       .  A
C1958      H1967   1.085       .  S
C1959      C1960   1.403       .  A
C1960      H1968   1.084       .  S
C1969      C1970   1.400       .  A
C1969      C1974   1.405       .  A
C1969      H1985   1.084       .  S
C1970      C1971   1.404       .  A
C1970      H1986   1.084       .  S
C1971      C1981   1.408       .  A
C1971      C1972   1.414       .  A
C1972      C1978   1.410       .  A
C1972      C1973   1.415       .  A
C1973      C1975   1.415       .  A
C1973      C1974   1.409       .  A
C1974      C1982   1.401       .  A
C1975      C1984   1.411       .  A
C1975      C1976   1.403       .  A
C1976      C1977   1.401       .  A
C1976      H1987   1.083       .  S
C1977      C1978   1.405       .  A
C1977      H1988   1.084       .  S
C1978      C1979   1.405       .  A
C1979      C1980   1.407       .  A
C1979      H1989   1.084       .  S
C1980      C1981   1.406       .  A
C1981      H1990   1.085       .  S
C1982      C1983   1.410       .  A
C1982      H1991   1.086       .  S
C1983      C1984   1.404       .  A
C1984      H1992   1.084       .  S
C1993      C1994   1.405       .  A
C1993      C1998   1.405       .  A
C1993      H2009   1.084       .  S
C1994      C1995   1.407       .  A
C1994      H2010   1.083       .  S
C1995      C2005   1.412       .  A
C1995      C1996   1.409       .  A
C1996      C2002   1.414       .  A
C1996      C1997   1.420       .  A
C1997      C1999   1.407       .  A
C1997      C1998   1.415       .  A
C1998      C2006   1.418       .  A
C1999      C2008   1.401       .  A
C1999      C2000   1.405       .  A
C2000      C2001   1.399       .  A
C2000      H2011   1.083       .  S
C2001      C2002   1.402       .  A
C2001      H2012   1.084       .  S
C2002      C2003   1.409       .  A
C2003      C2004   1.406       .  A
C2003      H2013   1.085       .  S
C2004      C2005   1.413       .  A
C2005      H2014   1.084       .  S
C2006      C2007   1.411       .  A
C2006      H2015   1.084       .  S
C2007      C2008   1.414       .  A
C2008      H2016   1.083       .  S
C2017      C2018   1.405       .  A
C2017      C2022   1.407       .  A
C2017      H2033   1.083   1_455  S
C2018      C2019   1.405       .  A
C2018      H2034   1.084       .  S
C2019      C2029   1.419       .  A
C2019      C2020   1.415       .  A
C2020      C2026   1.408       .  A
C2020      C2021   1.423       .  A
C2021      C2023   1.415       .  A
C2021      C2022   1.409       .  A
C2022      C2030   1.413   1_455  A
C2023      C2032   1.416       .  A
C2023      C2024   1.404       .  A
C2024      C2025   1.403       .  A
C2024      H2035   1.083       .  S
C2025      C2026   1.406       .  A
C2025      H2036   1.084       .  S
C2026      C2027   1.408       .  A
C2027      C2028   1.415       .  A
C2027      H2037   1.084       .  S
C2028      C2029   1.412       .  A
C2029      H2038   1.084       .  S
C2030      C2031   1.413       .  A
C2030      H2039   1.085       .  S
C2031      C2032   1.409   1_655  A
C2032      H2040   1.084       .  S
C2041      C2042   1.397       .  A
C2041      C2046   1.403       .  A
C2041      H2057   1.083       .  S
C2042      C2043   1.403       .  A
C2042      H2058   1.084       .  S
C2043      C2053   1.398       .  A
C2043      C2044   1.410       .  A
C2044      C2050   1.412       .  A
C2044      C2045   1.411       .  A
C2045      C2047   1.410       .  A
C2045      C2046   1.411       .  A
C2046      C2054   1.400       .  A
C2047      C2056   1.403       .  A
C2047      C2048   1.404       .  A
C2048      C2049   1.400       .  A
C2048      H2059   1.084       .  S
C2049      C2050   1.404       .  A
C2049      H2060   1.083       .  S
C2050      C2051   1.405       .  A
C2051      C2052   1.407       .  A
C2051      H2061   1.084       .  S
C2052      C2053   1.409       .  A
C2053      H2062   1.084       .  S
C2054      C2055   1.407       .  A
C2054      H2063   1.084       .  S
C2055      C2056   1.409       .  A
C2056      H2064   1.084       .  S
C2065      C2066   1.402       .  A
C2065      C2070   1.404       .  A
C2065      H2081   1.083       .  S
C2066      C2067   1.405       .  A
C2066      H2082   1.084       .  S
C2067      C2077   1.405       .  A
C2067      C2068   1.410       .  A
C2068      C2074   1.414       .  A
C2068      C2069   1.413       .  A
C2069      C2071   1.408       .  A
C2069      C2070   1.415       .  A
C2070      C2078   1.411       .  A
C2071      C2080   1.397       .  A
C2071      C2072   1.404       .  A
C2072      C2073   1.397       .  A
C2072      H2083   1.084       .  S
C2073      C2074   1.402       .  A
C2073      H2084   1.083       .  S
C2074      C2075   1.402       .  A
C2075      C2076   1.404       .  A
C2075      H2085   1.084       .  S
C2076      C2077   1.410       .  A
C2077      H2086   1.085       .  S
C2078      C2079   1.406       .  A
C2078      H2087   1.084       .  S
C2079      C2080   1.409       .  A
C2080      H2088   1.085       .  S
C2089      C2090   1.401       .  A
C2089      C2094   1.404       .  A
C2089      H2105   1.084       .  S
C2090      C2091   1.404       .  A
C2090      H2106   1.083       .  S
C2091      C2101   1.407       .  A
C2091      C2092   1.412       .  A
C2092      C2098   1.412       .  A
C2092      C2093   1.412       .  A
C2093      C2095   1.412       .  A
C2093      C2094   1.413       .  A
C2094      C2102   1.406       .  A
C2095      C2104   1.401       .  A
C2095      C2096   1.403       .  A
C2096      C2097   1.398       .  A
C2096      H2107   1.084       .  S
C2097      C2098   1.404       .  A
C2097      H2108   1.083       .  S
C2098      C2099   1.401       .  A
C2099      C2100   1.405       .  A
C2099      H2109   1.084       .  S
C2100      C2101   1.406       .  A
C2101      H2110   1.084       .  S
C2102      C2103   1.407       .  A
C2102      H2111   1.084       .  S
C2103      C2104   1.404       .  A
C2104      H2112   1.085       .  S
C2113      C2114   1.406       .  A
C2113      C2118   1.407       .  A
C2113      H2129   1.083       .  S
C2114      C2115   1.406       .  A
C2114      H2130   1.084       .  S
C2115      C2125   1.418       .  A
C2115      C2116   1.413       .  A
C2116      C2122   1.409       .  A
C2116      C2117   1.421       .  A
C2117      C2119   1.412       .  A
C2117      C2118   1.412       .  A
C2118      C2126   1.416       .  A
C2119      C2128   1.407       .  A
C2119      C2120   1.403       .  A
C2120      C2121   1.399       .  A
C2120      H2131   1.084       .  S
C2121      C2122   1.404       .  A
C2121      H2132   1.083       .  S
C2122      C2123   1.405       .  A
C2123      C2124   1.413       .  A
C2123      H2133   1.084       .  S
C2124      C2125   1.413       .  A
C2125      H2134   1.084       .  S
C2126      C2127   1.412       .  A
C2126      H2135   1.084       .  S
C2127      C2128   1.408       .  A
C2128      H2136   1.085       .  S
C2137      C2138   1.406       .  A
C2137      C2142   1.406       .  A
C2137      H2153   1.083       .  S
C2138      C2139   1.406       .  A
C2138      H2154   1.084       .  S
C2139      C2149   1.414       .  A
C2139      C2140   1.412       .  A
C2140      C2146   1.413   1_455  A
C2140      C2141   1.420       .  A
C2141      C2143   1.409       .  A
C2141      C2142   1.414       .  A
C2142      C2150   1.419       .  A
C2143      C2152   1.403       .  A
C2143      C2144   1.405       .  A
C2144      C2145   1.399   1_455  A
C2144      H2155   1.084       .  S
C2145      C2146   1.403       .  A
C2145      H2156   1.084       .  S
C2146      C2147   1.406       .  A
C2147      C2148   1.407       .  A
C2147      H2157   1.085       .  S
C2148      C2149   1.410   1_655  A
C2149      H2158   1.084       .  S
C2150      C2151   1.412       .  A
C2150      H2159   1.083       .  S
C2151      C2152   1.414       .  A
C2152      H2160   1.084       .  S
C2161      C2162   1.400       .  A
C2161      C2166   1.404       .  A
C2161      H2177   1.083       .  S
C2162      C2163   1.404       .  A
C2162      H2178   1.084       .  S
C2163      C2173   1.404       .  A
C2163      C2164   1.411       .  A
C2164      C2170   1.411       .  A
C2164      C2165   1.412       .  A
C2165      C2167   1.410       .  A
C2165      C2166   1.411       .  A
C2166      C2174   1.405       .  A
C2167      C2176   1.401       .  A
C2167      C2168   1.403       .  A
C2168      C2169   1.398       .  A
C2168      H2179   1.083       .  S
C2169      C2170   1.403       .  A
C2169      H2180   1.084       .  S
C2170      C2171   1.402       .  A
C2171      C2172   1.407       .  A
C2171      H2181   1.084       .  S
C2172      C2173   1.410       .  A
C2173      H2182   1.084       .  S
C2174      C2175   1.409       .  A
C2174      H2183   1.084       .  S
C2175      C2176   1.409       .  A
C2176      H2184   1.083       .  S
C2185      C2186   1.400       .  A
C2185      C2190   1.404       .  A
C2185      H2201   1.083       .  S
C2186      C2187   1.404       .  A
C2186      H2202   1.084   1_455  S
C2187      C2197   1.404   1_455  A
C2187      C2188   1.412       .  A
C2188      C2194   1.413       .  A
C2188      C2189   1.412       .  A
C2189      C2191   1.411       .  A
C2189      C2190   1.413       .  A
C2190      C2198   1.404       .  A
C2191      C2200   1.402       .  A
C2191      C2192   1.404       .  A
C2192      C2193   1.399       .  A
C2192      H2203   1.084       .  S
C2193      C2194   1.403       .  A
C2193      H2204   1.083       .  S
C2194      C2195   1.404       .  A
C2195      C2196   1.405   1_455  A
C2195      H2205   1.084       .  S
C2196      C2197   1.405       .  A
C2197      H2206   1.085       .  S
C2198      C2199   1.405       .  A
C2198      H2207   1.085       .  S
C2199      C2200   1.406       .  A
C2200      H2208   1.085       .  S
C2209      C2210   1.394       .  A
C2209      C2214   1.402       .  A
C2209      H2225   1.083       .  S
C2210      C2211   1.401       .  A
C2210      H2226   1.084       .  S
C2211      C2221   1.392       .  A
C2211      C2212   1.412       .  A
C2212      C2218   1.414       .  A
C2212      C2213   1.403       .  A
C2213      C2215   1.411       .  A
C2213      C2214   1.412       .  A
C2214      C2222   1.394       .  A
C2215      C2224   1.396       .  A
C2215      C2216   1.403       .  A
C2216      C2217   1.396       .  A
C2216      H2227   1.084       .  S
C2217      C2218   1.402       .  A
C2217      H2228   1.084       .  S
C2218      C2219   1.397       .  A
C2219      C2220   1.397       .  A
C2219      H2229   1.085       .  S
C2220      C2221   1.398       .  A
C2221      H2230   1.086       .  S
C2222      C2223   1.401       .  A
C2222      H2231   1.084       .  S
C2223      C2224   1.403       .  A
C2224      H2232   1.085       .  S
C2233      C2234   1.399       .  A
C2233      C2238   1.403       .  A
C2233      H2249   1.083       .  S
C2234      C2235   1.404       .  A
C2234      H2250   1.084       .  S
C2235      C2245   1.400       .  A
C2235      C2236   1.409       .  A
C2236      C2242   1.416       .  A
C2236      C2237   1.415       .  A
C2237      C2239   1.410       .  A
C2237      C2238   1.414       .  A
C2238      C2246   1.406       .  A
C2239      C2248   1.405       .  A
C2239      C2240   1.405       .  A
C2240      C2241   1.402       .  A
C2240      H2251   1.084       .  S
C2241      C2242   1.404       .  A
C2241      H2252   1.083       .  S
C2242      C2243   1.412       .  A
C2243      C2244   1.405       .  A
C2243      H2253   1.084       .  S
C2244      C2245   1.407       .  A
C2245      H2254   1.086       .  S
C2246      C2247   1.405       .  A
C2246      H2255   1.084       .  S
C2247      C2248   1.409       .  A
C2248      H2256   1.084       .  S
