geometry optimzed in LAMMPS
_audit_creation_date              2020-12-01 
_audit_creation_method            'lammps2cif' 
_symmetry_space_group_name_H-M    'P1' 
_symmetry_Int_Tables_number       1 
_symmetry_cell_setting            triclinic 
loop_ 
_symmetry_equiv_pos_as_xyz 
  x,y,z 
_cell_length_a                    47.06254424 
_cell_length_b                    47.059398498163866 
_cell_length_c                    46.95654694598338 
_cell_angle_alpha                 90.0073067107701 
_cell_angle_beta                  90.03662177503344 
_cell_angle_gamma                 89.88515341163135 
loop_ 
_atom_site_label 
_atom_site_type_symbol 
_atom_site_fract_x 
_atom_site_fract_y 
_atom_site_fract_z 
_atom_site_charge 
O1          O  0.26464752  0.97257910  0.13606559    -0.85600
O2          O  0.23559827  0.95953782  0.18492460    -0.82600
C3          C  0.22863288  0.95872679  0.21080062     0.97900
O4          O  0.24062413  0.97516943  0.22864511    -0.82700
O5          O  0.29867385  0.96371677  0.23057730    -0.85300
C6          C  0.32378842  0.96099852  0.22158142     1.02400
O7          O  0.33307898  0.97749413  0.20236198    -0.78100
O8          O  0.30612278  0.96122088  0.15338231    -0.78300
C9          C  0.28543984  0.95546019  0.13741831     1.02400
O10         O  0.25626816  0.03247589  0.15005289    -0.85600
O11         O  0.22307115  0.01811029  0.19475960    -0.82600
C12         C  0.22969513  0.03608176  0.21367533     0.97900
O13         O  0.25393854  0.03507539  0.22510821    -0.82700
O14         O  0.31148073  0.02346114  0.23154083    -0.85300
C15         C  0.32342980  0.04007980  0.21398452     1.02400
O16         O  0.32064602  0.03601299  0.18772146    -0.78100
O17         O  0.29903529  0.02023164  0.13685849    -0.78200
C18         C  0.27865669  0.03777626  0.13659242     1.02300
Cr19       Cr  0.24740755  0.99578895  0.16774968     1.93700
Cr20       Cr  0.27640386  0.99915111  0.22613069     1.93200
Cr21       Cr  0.31222582  0.99857931  0.17135116     1.39100
O22         O  0.27870175  0.99747598  0.18850023    -1.23300
O23         O  0.76341881  0.02581932  0.15603855    -0.85600
O24         O  0.79126328  0.00901120  0.20414947    -0.82600
C25         C  0.78460591  0.02783563  0.22217253     0.97900
O26         O  0.75942621  0.02954885  0.23145551    -0.82700
O27         O  0.70018117  0.02274368  0.23186157    -0.85300
C28         C  0.68915904  0.03877889  0.21297999     1.02400
O29         O  0.69451342  0.03496362  0.18693850    -0.78100
O30         O  0.72168272  0.01523184  0.13854508    -0.78300
C31         C  0.74365215  0.03071920  0.13867359     1.02400
O32         O  0.75148117  0.96738765  0.14180472    -0.85600
O33         O  0.77243920  0.95195232  0.19348607    -0.82600
C34         C  0.77845440  0.95077704  0.21943723     0.97900
O35         O  0.76753677  0.96906870  0.23611187    -0.82700
O36         O  0.70892270  0.96159907  0.23170061    -0.85300
C37         C  0.68458737  0.96110854  0.22033855     1.02400
O38         O  0.67813567  0.97934427  0.20180782    -0.78100
O39         O  0.70899653  0.95772224  0.15726691    -0.78200
C40         C  0.73044241  0.95080018  0.14286903     1.02300
Cr41       Cr  0.76731998  0.98899894  0.17506877     1.93700
Cr42       Cr  0.73388806  0.99567052  0.23022484     1.93200
Cr43       Cr  0.70322194  0.99663336  0.17239506     1.39100
O44         O  0.73478806  0.99429929  0.19267976    -1.23300
O45         O  0.17168694  0.24080559  0.95345007    -0.85600
O46         O  0.21876531  0.21018107  0.96855417    -0.82600
C47         C  0.23958610  0.21823784  0.95359259     0.97900
O48         O  0.24962945  0.24302316  0.95604988    -0.82700
O49         O  0.24851990  0.30098650  0.96865324    -0.85300
C50         C  0.23086118  0.31255495  0.95160601     1.02400
O51         O  0.20461068  0.30757502  0.95380175    -0.78100
O52         O  0.15443997  0.28105205  0.96869418    -0.78300
C53         C  0.15514667  0.26160420  0.95015555     1.02400
O54         O  0.15559766  0.24522605  0.01298575    -0.85600
O55         O  0.20580963  0.21972127  0.02721230    -0.82600
C56         C  0.23192042  0.21434583  0.02906054     0.97900
O57         O  0.24934888  0.22841678  0.01420954    -0.82700
O58         O  0.24351118  0.28534045  0.02925547    -0.85300
C59         C  0.23222198  0.30956882  0.03146560     1.02400
O60         O  0.21698295  0.31854569  0.01140060    -0.78100
O61         O  0.17119128  0.28617896  0.02802646    -0.78200
C62         C  0.15662109  0.26414238  0.03208328     1.02300
Cr63       Cr  0.18915369  0.23136351  0.99043411     1.93700
Cr64       Cr  0.24509363  0.26475321  0.99206107     1.93200
Cr65       Cr  0.18798399  0.29597544  0.99052394     1.39100
O66         O  0.20756703  0.26388703  0.99044156    -1.23300
O67         O  0.17184290  0.76274168  0.02617438    -0.85600
O68         O  0.22164016  0.78782856  0.01468079    -0.82600
C69         C  0.24047932  0.77761112  0.03085251     0.97900
O70         O  0.24922482  0.75240603  0.02772933    -0.82700
O71         O  0.24449286  0.69514198  0.01408570    -0.85300
C72         C  0.22542869  0.68549458  0.03064436     1.02400
O73         O  0.19974285  0.69243002  0.02715243    -0.78100
O74         O  0.15230507  0.72353650  0.01125690    -0.78300
C75         C  0.15348040  0.74370718  0.02904020     1.02400
O76         O  0.15853074  0.75971017  0.96562264    -0.85600
O77         O  0.21114024  0.78118322  0.95490774    -0.82600
C78         C  0.23770329  0.78345706  0.95368572     0.97900
O79         O  0.25355216  0.76752398  0.96864946    -0.82700
O80         O  0.24391412  0.71081358  0.95401191    -0.85300
C81         C  0.23118566  0.68736884  0.95126632     1.02400
O82         O  0.21221810  0.68041133  0.96893868    -0.78100
O83         O  0.16986921  0.71665515  0.95229056    -0.78200
C84         C  0.15788478  0.74003829  0.94723925     1.02300
Cr85       Cr  0.19187041  0.77013828  0.99036833     1.93700
Cr86       Cr  0.24492005  0.73163070  0.99095005     1.93200
Cr87       Cr  0.18507309  0.70562216  0.98998593     1.39100
O88         O  0.20742154  0.73588425  0.99061526    -1.23300
O89         O  0.03995350  0.17382380  0.76120173    -0.85600
O90         O  0.01874886  0.22306328  0.78520205    -0.82600
C91         C  0.03655495  0.24075332  0.77605371     0.97900
O92         O  0.03690334  0.24736880  0.74998469    -0.82700
O93         O  0.02956757  0.24074145  0.69145671    -0.85300
C94         C  0.04627066  0.22133788  0.68273361     1.02400
O95         O  0.04248056  0.19591284  0.69009358    -0.78100
O96         O  0.02801073  0.15079137  0.72311028    -0.78300
C97         C  0.04574243  0.15502678  0.74292811     1.02400
O98         O  0.98277186  0.15347690  0.75433416    -0.85600
O99         O  0.96281173  0.20667767  0.77106936    -0.82600
C100        C  0.95839528  0.23325394  0.77070758     0.97900
O101        O  0.97556028  0.24948632  0.75764743    -0.82700
O102        O  0.96839684  0.23947486  0.70051292    -0.85300
C103        C  0.96618437  0.22420556  0.67852843     1.02400
O104        O  0.98392531  0.20450101  0.67408279    -0.78100
O105        O  0.96820032  0.16353102  0.71175103    -0.78200
C106        C  0.96469741  0.15038318  0.73479544     1.02300
Cr107      Cr  0.00122246  0.19019366  0.76539080     1.93700
Cr108      Cr  0.00273781  0.24155786  0.72522722     1.93200
Cr109      Cr  0.00545040  0.18043122  0.70186747     1.39100
O110        O  0.00311625  0.20434365  0.73070387    -1.23300
O111        O  0.97086455  0.15287740  0.22892266    -0.85600
O112        O  0.98946224  0.19849600  0.19764229    -0.82600
C113        C  0.97232529  0.21842906  0.20336369     0.97900
O114        O  0.97141546  0.22879813  0.22827501    -0.82700
O115        O  0.97966940  0.23187025  0.28790488    -0.85300
C116        C  0.96359504  0.21412579  0.30039726     1.02400
O117        O  0.96646007  0.18795810  0.29600848    -0.78100
O118        O  0.98151808  0.13752674  0.27161378    -0.78300
C119        C  0.96484130  0.13791574  0.25036096     1.02400
O120        O  0.02964637  0.13661635  0.23987925    -0.85600
O121        O  0.04648057  0.18611327  0.21467107    -0.82600
C122        C  0.04975042  0.21218911  0.20980840     0.97900
O123        O  0.03187701  0.22968029  0.21988251    -0.82700
O124        O  0.04059057  0.22784952  0.27744283    -0.85300
C125        C  0.04218205  0.21779377  0.30222285     1.02400
O126        O  0.02338593  0.20058966  0.31035318    -0.78100
O127        O  0.04141150  0.15344238  0.28136944    -0.78200
C128        C  0.04732593  0.13824818  0.26013348     1.02300
Cr129      Cr  0.00875046  0.16979083  0.22266044     1.93700
Cr130      Cr  0.00569226  0.22686758  0.25363653     1.93200
Cr131      Cr  0.00342298  0.17096820  0.28731711     1.39100
O132        O  0.00552131  0.18935177  0.25451409    -1.23300
O133        O  0.03513793  0.83952455  0.22548283    -0.85600
O134        O  0.01567691  0.79229153  0.19872168    -0.82600
C135        C  0.03430038  0.77376364  0.20428932     0.97900
O136        O  0.03663128  0.76374794  0.22930671    -0.82700
O137        O  0.03348250  0.76291068  0.28944148    -0.85300
C138        C  0.05102155  0.78112103  0.29882882     1.02400
O139        O  0.04800995  0.80693779  0.29265373    -0.78100
O140        O  0.02920861  0.85645976  0.26824585    -0.78300
C141        C  0.04356778  0.85523188  0.24546881     1.02400
O142        O  0.97686116  0.85455637  0.24127955    -0.85600
O143        O  0.95957384  0.80306681  0.21845437    -0.82600
C144        C  0.95760969  0.77651953  0.21485229     0.97900
O145        O  0.97602360  0.76041593  0.22608951    -0.82700
O146        O  0.97189027  0.76569392  0.28481832    -0.85300
C147        C  0.97302625  0.77733974  0.30908621     1.02400
O148        O  0.99276253  0.79472528  0.31408760    -0.78100
O149        O  0.97150376  0.84057049  0.28530503    -0.78200
C150        C  0.96257303  0.85430209  0.26412276     1.02300
Cr151      Cr  0.99730049  0.82128272  0.22361820     1.93700
Cr152      Cr  0.00453117  0.76588993  0.25744012     1.93200
Cr153      Cr  0.00988058  0.82338481  0.28758791     1.39100
O154        O  0.00393879  0.80342596  0.25613654    -1.23300
O155        O  0.83818783  0.76958653  0.95845276    -0.85600
O156        O  0.78769541  0.79063097  0.97676136    -0.82600
C157        C  0.77157583  0.78258195  0.95684382     0.97900
O158        O  0.76469013  0.75676863  0.95460944    -0.82700
O159        O  0.76786066  0.69751196  0.96096152    -0.85300
C160        C  0.78736397  0.68854755  0.94471164     1.02400
O161        O  0.81221979  0.69733959  0.94785361    -0.78100
O162        O  0.85813268  0.72769672  0.96360387    -0.78300
C163        C  0.85575942  0.75110732  0.95030237     1.02400
O164        O  0.85421797  0.75662974  0.01675680    -0.85600
O165        O  0.80035011  0.77217391  0.03329108    -0.82600
C166        C  0.77367217  0.77374281  0.03519531     0.97900
O167        O  0.75850672  0.76275577  0.01572927    -0.82700
O168        O  0.76715605  0.70529894  0.02068512    -0.85300
C169        C  0.78104808  0.68246945  0.02197350     1.02400
O170        O  0.80216131  0.67831678  0.00561003    -0.78100
O171        O  0.84582466  0.71158632  0.02294022    -0.78200
C172        C  0.85734094  0.73416431  0.03121232     1.02300
Cr173      Cr  0.81915803  0.76953411  0.99587493     1.93700
Cr174      Cr  0.76742269  0.73101487  0.98795093     1.93200
Cr175      Cr  0.82795157  0.70599413  0.98535643     1.39100
O176        O  0.80486607  0.73535051  0.98984298    -1.23300
O177        O  0.26145960  0.02557180  0.84310446    -0.85600
O178        O  0.23418879  0.04151744  0.79452713    -0.82600
C179        C  0.22870605  0.04461119  0.76852607     0.97900
O180        O  0.24310324  0.03136934  0.74984239    -0.82700
O181        O  0.30222516  0.04097284  0.75497921    -0.85300
C182        C  0.32712090  0.03986537  0.76507857     1.02400
O183        O  0.33391150  0.01942182  0.78104784    -0.78100
O184        O  0.30404742  0.03656566  0.82794686    -0.78300
C185        C  0.28266436  0.04227967  0.84294235     1.02400
O186        O  0.25263810  0.96613640  0.82488485    -0.85600
O187        O  0.22273570  0.98382580  0.77970885    -0.82600
C188        C  0.22947858  0.96980048  0.75780735     0.97900
O189        O  0.25392452  0.97192336  0.74693723    -0.82700
O190        O  0.31247837  0.98000913  0.74818605    -0.85300
C191        C  0.32225748  0.96125733  0.76520043     1.02400
O192        O  0.31703961  0.96251131  0.79146768    -0.78100
O193        O  0.29330256  0.97779391  0.84291735    -0.78200
C194        C  0.27274724  0.96063137  0.84143397     1.02300
Cr195      Cr  0.24524013  0.00413284  0.80942246     1.93700
Cr196      Cr  0.27811955  0.00609915  0.75273385     1.93200
Cr197      Cr  0.30961499  0.99936718  0.80954841     1.39100
O198        O  0.27743924  0.00324295  0.79035213    -1.23300
O199        O  0.98976679  0.87281675  0.73672450    -0.85600
O200        O  0.97618004  0.82631673  0.77011771    -0.82600
C201        C  0.97393941  0.80081213  0.77797818     0.97900
O202        O  0.98825496  0.78135422  0.76588843    -0.82700
O203        O  0.97070629  0.77496844  0.70968946    -0.85300
C204        C  0.96501948  0.78334286  0.68473910     1.02400
O205        O  0.98001071  0.80230504  0.67297398    -0.78100
O206        O  0.97026834  0.85214821  0.70042620    -0.78300
C207        C  0.96927772  0.87075444  0.71953813     1.02400
O208        O  0.04807246  0.85545098  0.73938196    -0.85600
O209        O  0.03475946  0.81355800  0.77754125    -0.82600
C210        C  0.05097619  0.79341576  0.77029582     0.97900
O211        O  0.04678667  0.78086875  0.74693365    -0.82700
O212        O  0.02918254  0.77102875  0.69179495    -0.85300
C213        C  0.04324211  0.78694230  0.67530810     1.02400
O214        O  0.03966612  0.81342319  0.67510368    -0.78100
O215        O  0.03098257  0.86646245  0.69729064    -0.78200
C216        C  0.04999137  0.86893654  0.71636239     1.02300
Cr217      Cr  0.01191715  0.84026188  0.75344073     1.93700
Cr218      Cr  0.00869625  0.77999937  0.72822353     1.93200
Cr219      Cr  0.00544935  0.83258809  0.68914947     1.39100
O220        O  0.00871471  0.81740060  0.72349075    -1.23300
O221        O  0.85329312  0.23955226  0.00590889    -0.85600
O222        O  0.80488880  0.20999951  0.01837812    -0.82600
C223        C  0.77906440  0.20525024  0.02313548     0.97900
O224        O  0.75961295  0.22020517  0.01193111    -0.82700
O225        O  0.76109816  0.27587265  0.03216684    -0.85300
C226        C  0.77229568  0.29956987  0.03797562     1.02400
O227        O  0.79039982  0.31029686  0.02138189    -0.78100
O228        O  0.83753141  0.27721969  0.02776962    -0.78300
C229        C  0.85422357  0.25635493  0.02701033     1.02400
O230        O  0.83233684  0.24373351  0.94718956    -0.85600
O231        O  0.78858592  0.20864196  0.95992509    -0.82600
C232        C  0.76654734  0.21755245  0.94738595     0.97900
O233        O  0.75524245  0.24077070  0.95474881    -0.82700
O234        O  0.75461783  0.29653044  0.97383909    -0.85300
C235        C  0.77151390  0.31123841  0.95879033     1.02400
O236        O  0.79805011  0.30879761  0.96126733    -0.78100
O237        O  0.84920529  0.28210240  0.96704020    -0.78200
C238        C  0.84749428  0.26558864  0.94585581     1.02300
Cr239      Cr  0.81830086  0.22811102  0.98335076     1.93700
Cr240      Cr  0.76072837  0.25857204  0.99306457     1.93200
Cr241      Cr  0.81734458  0.29192491  0.99410272     1.39100
O242        O  0.79848950  0.25950393  0.99013446    -1.23300
O243        O  0.76003310  0.96310576  0.82305818    -0.85600
O244        O  0.79077765  0.98332247  0.77965479    -0.82600
C245        C  0.78495440  0.96820493  0.75824972     0.97900
O246        O  0.76070918  0.96915937  0.74696265    -0.82700
O247        O  0.70313351  0.97727101  0.74445126    -0.85300
C248        C  0.69320347  0.95752383  0.75992170     1.02400
O249        O  0.69540378  0.95905851  0.78665558    -0.78100
O250        O  0.71789843  0.97223896  0.83935123    -0.78300
C251        C  0.73960104  0.95628889  0.83862505     1.02400
O252        O  0.74816593  0.02093921  0.84304770    -0.85600
O253        O  0.77554742  0.04019177  0.79581335    -0.82600
C254        C  0.78281218  0.04345857  0.77030444     0.97900
O255        O  0.77077167  0.02920616  0.75077835    -0.82700
O256        O  0.71227470  0.03782486  0.75266109    -0.85300
C257        C  0.68731242  0.03774174  0.76241934     1.02400
O258        O  0.67904807  0.01744629  0.77804396    -0.78100
O259        O  0.70645111  0.03176683  0.82670529    -0.78200
C260        C  0.72700420  0.03766043  0.84267965     1.02300
Cr261      Cr  0.76628266  0.00174081  0.80917168     1.93700
Cr262      Cr  0.73635178  0.00333774  0.75140744     1.93200
Cr263      Cr  0.70207713  0.99536477  0.80652595     1.39100
O264        O  0.73495463  0.00013520  0.78888712    -1.23300
O265        O  0.53042232  0.25399725  0.34654101    -0.85600
O266        O  0.54373474  0.28010519  0.29580514    -0.82600
C267        C  0.54511626  0.28436496  0.26931097     0.97900
O268        O  0.52940128  0.27037469  0.25243532    -0.82700
O269        O  0.54068492  0.21204108  0.25752253    -0.85300
C270        C  0.54176593  0.18736361  0.26819172     1.02400
O271        O  0.52296595  0.18024792  0.28592703    -0.78100
O272        O  0.54143068  0.21112664  0.33217861    -0.78300
C273        C  0.54740693  0.23304081  0.34636761     1.02400
O274        O  0.47032276  0.26179365  0.33243333    -0.85600
O275        O  0.48512351  0.29144981  0.28516680    -0.82600
C276        C  0.46783588  0.28364436  0.26608051     0.97900
O277        O  0.46963984  0.25896488  0.25554247    -0.82700
O278        O  0.47962227  0.20085445  0.25506395    -0.85300
C279        C  0.46259768  0.19051306  0.27329583     1.02400
O280        O  0.46596444  0.19532145  0.29944995    -0.78100
O281        O  0.48270942  0.22043422  0.34911145    -0.78200
C282        C  0.46484734  0.24044635  0.34754114     1.02300
Cr283      Cr  0.50727963  0.26925695  0.31390538     1.93700
Cr284      Cr  0.50503114  0.23547410  0.25791410     1.93200
Cr285      Cr  0.50352086  0.20431998  0.31529689     1.39100
O286        O  0.50533698  0.23648160  0.29559003    -1.23300
O287        O  0.35575128  0.51702258  0.24148678    -0.85600
O288        O  0.30650618  0.53257072  0.27028800    -0.82600
C289        C  0.28040234  0.53486188  0.27605586     0.97900
O290        O  0.26211155  0.51982052  0.26306844    -0.82700
O291        O  0.26017071  0.53412789  0.20577485    -0.85300
C292        C  0.27094636  0.53909438  0.18163951     1.02400
O293        O  0.29068386  0.52362685  0.17200103    -0.78100
O294        O  0.33767694  0.53589429  0.20357507    -0.78300
C295        C  0.35445430  0.53748948  0.22434535     1.02400
O296        O  0.33819235  0.45926092  0.24521632    -0.85600
O297        O  0.29393262  0.47501099  0.27978439    -0.82600
C298        C  0.27509235  0.45778874  0.27195361     0.97900
O299        O  0.26410394  0.46024636  0.24756441    -0.82700
O300        O  0.25870165  0.47432621  0.19069421    -0.85300
C301        C  0.27623927  0.45971887  0.17630438     1.02400
O302        O  0.30257799  0.46436798  0.17776108    -0.78100
O303        O  0.35319774  0.47550937  0.20409418    -0.78200
C304        C  0.35346860  0.45665983  0.22338991     1.02300
Cr305      Cr  0.32210373  0.49610590  0.25662506     1.93700
Cr306      Cr  0.26412327  0.49720629  0.22658019     1.93200
Cr307      Cr  0.31978964  0.49976127  0.19189280     1.39100
O308        O  0.30172941  0.49766210  0.22489086    -1.23300
O309        O  0.25013659  0.35365063  0.51473827    -0.85600
O310        O  0.27726509  0.30428164  0.52971357    -0.82600
C311        C  0.28210835  0.27803440  0.53197070     0.97900
O312        O  0.26962077  0.26064374  0.51555243    -0.82700
O313        O  0.21227866  0.26251324  0.52577649    -0.85300
C314        C  0.18776937  0.27303458  0.52845788     1.02400
O315        O  0.17916975  0.29020925  0.50977108    -0.78100
O316        O  0.20888222  0.33717364  0.52765970    -0.78300
C317        C  0.23032658  0.35230387  0.53288967     1.02400
O318        O  0.25846629  0.33789729  0.45545052    -0.85600
O319        O  0.29052371  0.29267917  0.47200114    -0.82600
C320        C  0.28367828  0.27412270  0.45384507     0.97900
O321        O  0.25921512  0.26297576  0.45483184    -0.82700
O322        O  0.20066572  0.25988293  0.46465041    -0.85300
C323        C  0.18838729  0.27774086  0.44844520     1.02400
O324        O  0.19179062  0.30401540  0.45220542    -0.78100
O325        O  0.21671242  0.35371091  0.46809234    -0.78200
C326        C  0.23655036  0.35213690  0.44999677     1.02300
Cr327      Cr  0.26657960  0.32095780  0.49278920     1.93700
Cr328      Cr  0.23522712  0.26411012  0.49020124     1.93200
Cr329      Cr  0.20164242  0.32009700  0.48963903     1.39100
O330        O  0.23450988  0.30155950  0.49078724    -1.23300
O331        O  0.26163559  0.66411277  0.45807198    -0.85600
O332        O  0.29285613  0.70791803  0.47866473    -0.82600
C333        C  0.28804963  0.72862433  0.46214664     0.97900
O334        O  0.26386462  0.74045530  0.46185223    -0.82700
O335        O  0.20471978  0.74497394  0.46871489    -0.85300
C336        C  0.19350224  0.72827234  0.45062587     1.02400
O337        O  0.19768495  0.70195017  0.45230809    -0.78100
O338        O  0.21834057  0.64976643  0.46691575    -0.78300
C339        C  0.24043402  0.64933739  0.45156011     1.02400
O340        O  0.24803008  0.64590016  0.51572509    -0.85600
O341        O  0.27393526  0.69326317  0.53491095    -0.82600
C342        C  0.28156745  0.71848236  0.53833187     0.97900
O343        O  0.27157404  0.73812070  0.52265759    -0.82700
O344        O  0.21266510  0.73815925  0.52981043    -0.85300
C345        C  0.18752572  0.72876776  0.52894835     1.02400
O346        O  0.18004354  0.71273472  0.50883420    -0.78100
O347        O  0.20689194  0.66430927  0.52640874    -0.78200
C348        C  0.22698953  0.64777153  0.53240565     1.02300
Cr349      Cr  0.26687704  0.67926579  0.49651755     1.93700
Cr350      Cr  0.23793995  0.73783103  0.49563759     1.93200
Cr351      Cr  0.20311083  0.68321031  0.48897018     1.39100
O352        O  0.23604767  0.70028340  0.49343517    -1.23300
O353        O  0.34477931  0.47348924  0.72780739    -0.85600
O354        O  0.29430442  0.48345439  0.70121713    -0.82600
C355        C  0.27683270  0.46447848  0.70905266     0.97900
O356        O  0.26717529  0.46411859  0.73418982    -0.82700
O357        O  0.26644159  0.47385090  0.79302316    -0.85300
C358        C  0.28591523  0.45798027  0.80296027     1.02400
O359        O  0.31139457  0.46237005  0.79636528    -0.78100
O360        O  0.35950364  0.48336042  0.77080855    -0.78300
C361        C  0.36114472  0.46857375  0.74842624     1.02400
O362        O  0.35192842  0.53359085  0.73884945    -0.85600
O363        O  0.29931656  0.54299548  0.71669520    -0.82600
C364        C  0.27352406  0.54098652  0.71027628     0.97900
O365        O  0.25845073  0.52260181  0.72283669    -0.82700
O366        O  0.26374522  0.53412507  0.78141561    -0.85300
C367        C  0.27557475  0.53618731  0.80551047     1.02400
O368        O  0.29481894  0.51879200  0.81265790    -0.78100
O369        O  0.33929307  0.53981667  0.78285933    -0.78200
C370        C  0.35258373  0.54835318  0.76136963     1.02300
Cr371      Cr  0.32138501  0.50800473  0.72358557     1.93700
Cr372      Cr  0.26676298  0.49903539  0.75797786     1.93200
Cr373      Cr  0.32472933  0.50107545  0.78816565     1.39100
O374        O  0.30435845  0.50240636  0.75649167    -1.23300
O375        O  0.48729313  0.73749432  0.34786047    -0.85600
O376        O  0.47248824  0.71347944  0.29631410    -0.82600
C377        C  0.46905545  0.71064885  0.26985220     0.97900
O378        O  0.48360101  0.72502206  0.25230657    -0.82700
O379        O  0.46763906  0.78176800  0.25717573    -0.85300
C380        C  0.46338641  0.80504643  0.26991897     1.02400
O381        O  0.47967233  0.81295639  0.28976207    -0.78100
O382        O  0.46970940  0.77815998  0.33472882    -0.78300
C383        C  0.46812516  0.75619345  0.34980814     1.02400
O384        O  0.54573162  0.73680134  0.32954361    -0.85600
O385        O  0.53149425  0.70731004  0.28207815    -0.82600
C386        C  0.54700076  0.71721350  0.26251425     0.97900
O387        O  0.54248575  0.74185516  0.25285439    -0.82700
O388        O  0.52650533  0.79857077  0.25428471    -0.85300
C389        C  0.54180989  0.81121377  0.27248827     1.02400
O390        O  0.53915772  0.80654867  0.29866544    -0.78100
O391        O  0.53044512  0.77677824  0.34768159    -0.78200
C392        C  0.54907341  0.75734823  0.34630314     1.02300
Cr393      Cr  0.50897985  0.72648404  0.31257295     1.93700
Cr394      Cr  0.50511094  0.76167771  0.25722146     1.93200
Cr395      Cr  0.50482258  0.79104628  0.31613850     1.39100
O396        O  0.50638987  0.75980601  0.29511703    -1.23300
O397        O  0.67184742  0.46754870  0.24918009    -0.85600
O398        O  0.72016499  0.48232807  0.27679146    -0.82600
C399        C  0.73930890  0.46510036  0.26881961     0.97900
O400        O  0.74926316  0.46638115  0.24390273    -0.82700
O401        O  0.74842749  0.47396052  0.18594728    -0.85300
C402        C  0.73054052  0.45536387  0.17809435     1.02400
O403        O  0.70447709  0.45885402  0.18317803    -0.78100
O404        O  0.65455021  0.47810884  0.20750093    -0.78300
C405        C  0.65478110  0.46249057  0.22932620     1.02400
O406        O  0.65836291  0.52708264  0.23883040    -0.85600
O407        O  0.70912851  0.54067390  0.26366927    -0.82600
C408        C  0.73552217  0.54260069  0.26736685     0.97900
O409        O  0.75206456  0.52656579  0.25337996    -0.82700
O410        O  0.74500832  0.53535595  0.19524328    -0.85300
C411        C  0.73414764  0.53476491  0.17068082     1.02400
O412        O  0.71739939  0.51486174  0.16437965    -0.78100
O413        O  0.67172051  0.53533700  0.19480814    -0.78200
C414        C  0.65795517  0.54255061  0.21668463     1.02300
Cr415      Cr  0.69100342  0.50413366  0.25454264     1.93700
Cr416      Cr  0.74599159  0.50077588  0.21959860     1.93200
Cr417      Cr  0.68842397  0.49706441  0.18983087     1.39100
O418        O  0.70851585  0.50070475  0.22151116    -1.23300
O419        O  0.76102567  0.64272269  0.51067446    -0.85600
O420        O  0.73384553  0.69091437  0.53086417    -0.82600
C421        C  0.72622767  0.71639863  0.53381319     0.97900
O422        O  0.73861890  0.73589220  0.51985249    -0.82700
O423        O  0.79645085  0.73558502  0.53315484    -0.85300
C424        C  0.82105899  0.72509015  0.53589255     1.02400
O425        O  0.83037184  0.70734100  0.51791684    -0.78100
O426        O  0.80028780  0.65899803  0.52779769    -0.78300
C427        C  0.78003308  0.64221087  0.52994118     1.02400
O428        O  0.75318704  0.66391472  0.45410700    -0.85600
O429        O  0.72084956  0.70773329  0.47386330    -0.82600
C430        C  0.72770489  0.72857266  0.45840539     0.97900
O431        O  0.75224909  0.73934902  0.46033888    -0.82700
O432        O  0.81033217  0.74312801  0.47328177    -0.85300
C433        C  0.82449571  0.72694631  0.45689460     1.02400
O434        O  0.82178671  0.70038801  0.45818228    -0.78100
O435        O  0.79593093  0.64891787  0.46557272    -0.78200
C436        C  0.77479109  0.64916628  0.44863541     1.02300
Cr437      Cr  0.74478740  0.67784460  0.49253696     1.93700
Cr438      Cr  0.77473069  0.73564935  0.49646237     1.93200
Cr439      Cr  0.80949676  0.68007177  0.49245265     1.39100
O440        O  0.77645520  0.69809093  0.49343348    -1.23300
O441        O  0.66053783  0.52635529  0.74004463    -0.85600
O442        O  0.71274672  0.53445237  0.71382927    -0.82600
C443        C  0.73919570  0.53313813  0.70949063     0.97900
O444        O  0.75444959  0.51531671  0.72297389    -0.82700
O445        O  0.75339414  0.52770785  0.78077001    -0.85300
C446        C  0.74246964  0.53184303  0.80496260     1.02400
O447        O  0.72133672  0.51727462  0.81263519    -0.78100
O448        O  0.67846589  0.53873920  0.78086538    -0.78300
C449        C  0.66286234  0.54441137  0.75992387     1.02400
O450        O  0.66980063  0.46537142  0.73415304    -0.85600
O451        O  0.71768365  0.47531525  0.70308907    -0.82600
C452        C  0.73438402  0.45585421  0.71117630     0.97900
O453        O  0.74440876  0.45625184  0.73615080    -0.82700
O454        O  0.74712655  0.46827012  0.79442884    -0.85300
C455        C  0.72704437  0.45467303  0.80626424     1.02400
O456        O  0.70167462  0.46101408  0.80085907    -0.78100
O457        O  0.65467054  0.48176417  0.77480032    -0.78200
C458        C  0.65443839  0.46267205  0.75588988     1.02300
Cr459      Cr  0.69130642  0.50022992  0.72523467     1.93700
Cr460      Cr  0.74709753  0.49225876  0.75854727     1.93200
Cr461      Cr  0.69039005  0.49962859  0.78988045     1.39100
O462        O  0.70983383  0.49748825  0.75784413    -1.23300
O463        O  0.53770479  0.72743561  0.66148314    -0.85600
O464        O  0.52240987  0.70718244  0.71380791    -0.82600
C465        C  0.54096746  0.71605562  0.73095633     0.97900
O466        O  0.54231965  0.74231596  0.73664600    -0.82700
O467        O  0.53403677  0.80069098  0.72866146    -0.85300
C468        C  0.54898586  0.80976653  0.70820142     1.02400
O469        O  0.54377875  0.80240980  0.68295924    -0.78100
O470        O  0.52749770  0.76730689  0.63998158    -0.78300
C471        C  0.54369866  0.74591206  0.64300838     1.02400
O472        O  0.47966660  0.73519671  0.64712491    -0.85600
O473        O  0.46479601  0.72179938  0.70316013    -0.82600
C474        C  0.46340440  0.72272479  0.73005461     0.97900
O475        O  0.48237592  0.73550765  0.74404717    -0.82700
O476        O  0.47345632  0.79144172  0.73155432    -0.85300
C477        C  0.47015619  0.81329582  0.71636931     1.02400
O478        O  0.48610069  0.81745583  0.69511116    -0.78100
O479        O  0.46791695  0.77898162  0.65532490    -0.78200
C480        C  0.46224594  0.75525403  0.64440486     1.02300
Cr481      Cr  0.50137127  0.72566640  0.68233207     1.93700
Cr482      Cr  0.50802894  0.76718555  0.73218485     1.93200
Cr483      Cr  0.50619397  0.78921507  0.67012370     1.39100
O484        O  0.50565358  0.76078389  0.69496462    -1.23300
O485        O  0.48045228  0.25897781  0.63588875    -0.85600
O486        O  0.46410317  0.28041080  0.68790098    -0.82600
C487        C  0.46379000  0.28559825  0.71422169     0.97900
O488        O  0.48134491  0.27328079  0.73062269    -0.82700
O489        O  0.47371522  0.21525120  0.72827514    -0.85300
C490        C  0.47141112  0.19139024  0.71627767     1.02400
O491        O  0.48668475  0.18521485  0.69491163    -0.78100
O492        O  0.47041967  0.21602805  0.64915097    -0.78300
C493        C  0.46392478  0.23796716  0.63550189     1.02400
O494        O  0.53819660  0.26972636  0.65134580    -0.85600
O495        O  0.52068596  0.29705150  0.69933736    -0.82600
C496        C  0.54031298  0.29002277  0.71619158     0.97900
O497        O  0.54195567  0.26464645  0.72472509    -0.82700
O498        O  0.53386334  0.20637495  0.72684116    -0.85300
C499        C  0.54931290  0.19408706  0.70864363     1.02400
O500        O  0.54477750  0.19831957  0.68259073    -0.78100
O501        O  0.52981085  0.22703372  0.63449893    -0.78200
C502        C  0.54515221  0.24915479  0.63574811     1.02300
Cr503      Cr  0.50115185  0.27387295  0.66973928     1.93700
Cr504      Cr  0.50756648  0.23990448  0.72474192     1.93200
Cr505      Cr  0.50770484  0.20915573  0.66669015     1.39100
O506        O  0.50540999  0.24076067  0.68712875    -1.23300
O507        O  0.75727403  0.34412264  0.44971202    -0.85600
O508        O  0.72161428  0.30164279  0.46588767    -0.82600
C509        C  0.72741116  0.28019207  0.45076433     0.97900
O510        O  0.75091435  0.26740261  0.45340606    -0.82700
O511        O  0.80846615  0.26102178  0.46594900    -0.85300
C512        C  0.82194713  0.27711405  0.44889594     1.02400
O513        O  0.81961855  0.30373820  0.45072590    -0.78100
O514        O  0.79945019  0.35672853  0.46417775    -0.78300
C515        C  0.78008154  0.35726968  0.44543882     1.02400
O516        O  0.76430154  0.36042691  0.50952617    -0.85600
O517        O  0.73262942  0.31436506  0.52403415    -0.82600
C518        C  0.72462482  0.28901328  0.52646079     0.97900
O519        O  0.73675505  0.26948449  0.51229904    -0.82700
O520        O  0.79470196  0.26718906  0.52614989    -0.85300
C521        C  0.82029296  0.27511987  0.52798531     1.02400
O522        O  0.83037233  0.29109122  0.50892061    -0.78100
O523        O  0.80322543  0.34018041  0.52448896    -0.78200
C524        C  0.78248202  0.35644718  0.52901542     1.02300
Cr525      Cr  0.74628118  0.32871935  0.48722117     1.93700
Cr526      Cr  0.77312803  0.26898510  0.48944813     1.93200
Cr527      Cr  0.81065573  0.32208509  0.48717586     1.39100
O528        O  0.77655040  0.30640414  0.48774340    -1.23300
C529        C  0.57191301  0.25132850  0.61952081     0.01100
C530        C  0.59697752  0.25933754  0.63403721     0.03900
C531        C  0.62193959  0.26498264  0.61874666    -0.12100
C532        C  0.62247158  0.26128948  0.58900094     0.23200
C533        C  0.59782726  0.25216826  0.57454658    -0.12700
C534        C  0.57246249  0.24753063  0.58974032     0.04600
C535        C  0.64864737  0.26825697  0.57291453     0.27100
C536        C  0.65017139  0.29383089  0.55748448    -0.13400
C537        C  0.67479350  0.30039082  0.54191411     0.05200
C538        C  0.69908678  0.28256122  0.54374644    -0.09400
C539        C  0.69781184  0.25756581  0.56031622     0.06000
C540        C  0.67221561  0.24976865  0.57364407    -0.13700
Br541      Br  0.59863935  0.24720534  0.53372899    -0.05800
Br542      Br  0.59764630  0.26179761  0.67513909    -0.00200
Br543      Br  0.67361010  0.33256635  0.51629643     0.00300
Br544      Br  0.66892955  0.21322968  0.59196045    -0.04100
Br545      Br  0.53820377  0.23800298  0.56940889     0.00400
Br546      Br  0.65504989  0.27921754  0.63844597    -0.03400
Br547      Br  0.61816727  0.31970291  0.55739643    -0.04300
Br548      Br  0.73139852  0.23474320  0.56627921    -0.00300
C549        C  0.55974026  0.31265586  0.72660122     0.01100
C550        C  0.56691336  0.33532730  0.70804487     0.03900
C551        C  0.58079250  0.35948158  0.71854683    -0.12100
C552        C  0.58868397  0.36102479  0.74736027     0.23200
C553        C  0.58240376  0.33835582  0.76589825    -0.12700
C554        C  0.56815659  0.31405725  0.75557884     0.04600
C555        C  0.60540554  0.38595540  0.75690813     0.27100
C556        C  0.63522398  0.38471068  0.75533686    -0.13400
C557        C  0.65123682  0.40980648  0.75682780     0.05200
C558        C  0.63748807  0.43642525  0.75943446    -0.09400
C559        C  0.60782800  0.43739612  0.76374961     0.06000
C560        C  0.59176375  0.41216089  0.76215646    -0.13700
Br561      Br  0.59228600  0.34133595  0.80565286    -0.05800
Br562      Br  0.55902762  0.33359071  0.66763122    -0.00200
Br563      Br  0.69218253  0.40738167  0.75544218     0.00300
Br564      Br  0.55083367  0.41357865  0.76412721    -0.04100
Br565      Br  0.55906681  0.28380251  0.78187827     0.00400
Br566      Br  0.58857329  0.39114676  0.69343326    -0.03400
Br567      Br  0.65395311  0.34878322  0.74848782    -0.04300
Br568      Br  0.58890857  0.47325345  0.76979224    -0.00300
C569        C  0.64717912  0.57201975  0.75901318     0.01100
C570        C  0.64192912  0.58590029  0.73266296     0.03900
C571        C  0.62724435  0.61197825  0.73205368    -0.12100
C572        C  0.61817888  0.62482563  0.75752486     0.23200
C573        C  0.62418791  0.61186421  0.78379502    -0.12700
C574        C  0.63812156  0.58535395  0.78466058     0.04600
C575        C  0.59844359  0.64940951  0.75610321     0.27100
C576        C  0.60860562  0.67746208  0.75415106    -0.13400
C577        C  0.58964994  0.70006252  0.74829842     0.05200
C578        C  0.56039629  0.69441576  0.74380831    -0.09400
C579        C  0.55023121  0.66624320  0.74811391     0.06000
C580        C  0.56921143  0.64402958  0.75414005    -0.13700
Br581      Br  0.61213348  0.63024626  0.81853887    -0.05800
Br582      Br  0.65486465  0.57022729  0.69687569    -0.00200
Br583      Br  0.60466601  0.73799196  0.74432104     0.00300
Br584      Br  0.55544736  0.60543420  0.75791671    -0.04100
Br585      Br  0.64221822  0.56689642  0.82127158     0.00400
Br586      Br  0.61837036  0.62994295  0.69609242    -0.03400
Br587      Br  0.64881433  0.68433541  0.75789357    -0.04300
Br588      Br  0.51034324  0.65671383  0.74532998    -0.00300
C589        C  0.74294586  0.43393280  0.68991171     0.01100
C590        C  0.72239801  0.42355317  0.67046228     0.03900
C591        C  0.73091254  0.40903998  0.64572685    -0.12100
C592        C  0.75992706  0.40446226  0.64027269     0.23200
C593        C  0.78025091  0.41179789  0.66099718    -0.12700
C594        C  0.77188415  0.42653892  0.68582320     0.04600
C595        C  0.76872447  0.39249293  0.61234038     0.27100
C596        C  0.77195622  0.36299793  0.60907989    -0.13400
C597        C  0.77679672  0.35136328  0.58189942     0.05200
C598        C  0.77860891  0.36924106  0.55767375    -0.09400
C599        C  0.77569919  0.39886501  0.56114158     0.06000
C600        C  0.77132776  0.41047428  0.58846766    -0.13700
Br601      Br  0.81961081  0.40212325  0.65471917    -0.05800
Br602      Br  0.68228833  0.42877778  0.67745731    -0.00200
Br603      Br  0.77820907  0.31061887  0.57808844     0.00300
Br604      Br  0.76897324  0.45110272  0.59342492    -0.04100
Br605      Br  0.80073267  0.43847699  0.71246945     0.00400
Br606      Br  0.70285551  0.39567865  0.61881871    -0.03400
Br607      Br  0.76901862  0.33860414  0.64202422    -0.04300
Br608      Br  0.77748228  0.42364755  0.52861172    -0.00300
C609        C  0.75167422  0.55031670  0.68606911     0.01100
C610        C  0.74528440  0.57957415  0.68339604     0.03900
C611        C  0.75334450  0.59451357  0.65868579    -0.12100
C612        C  0.76646945  0.58006273  0.63595887     0.23200
C613        C  0.77393963  0.55128542  0.63895433    -0.12700
C614        C  0.76733865  0.53668533  0.66420323     0.04600
C615        C  0.77045336  0.59449911  0.60814116     0.27100
C616        C  0.74720830  0.59725409  0.58949529    -0.13400
C617        C  0.75044628  0.61126860  0.56320428     0.05200
C618        C  0.77714146  0.62275514  0.55514235    -0.09400
C619        C  0.80104968  0.61773656  0.57331851     0.06000
C620        C  0.79727026  0.60458039  0.60000694    -0.13700
Br621      Br  0.79174005  0.53141569  0.60761625    -0.05800
Br622      Br  0.72566975  0.59946985  0.71343360    -0.00200
Br623      Br  0.71706804  0.61403064  0.53923007     0.00300
Br624      Br  0.82877852  0.60102633  0.62622494    -0.04100
Br625      Br  0.77855258  0.49748041  0.66729558     0.00400
Br626      Br  0.74590036  0.63471906  0.65531335    -0.03400
Br627      Br  0.71062401  0.58224095  0.60071943    -0.04300
Br628      Br  0.83938447  0.62657688  0.56161849    -0.00300
C629        C  0.70002297  0.72298170  0.55011658     0.01100
C630        C  0.67492207  0.70731467  0.54453545     0.03900
C631        C  0.64941619  0.71437009  0.55836622    -0.12100
C632        C  0.64845658  0.73733033  0.57750082     0.23200
C633        C  0.67305047  0.75367832  0.58239080    -0.12700
C634        C  0.69887348  0.74637263  0.56894540     0.04600
C635        C  0.62239260  0.74162133  0.59483780     0.27100
C636        C  0.59918394  0.75713407  0.58409066    -0.13400
C637        C  0.57296853  0.75720827  0.59874560     0.05200
C638        C  0.57024026  0.74301018  0.62538680    -0.09400
C639        C  0.59405369  0.72742502  0.63591594     0.06000
C640        C  0.61975225  0.72679972  0.62061958    -0.13700
Br641      Br  0.67117312  0.78585521  0.60773845    -0.05800
Br642      Br  0.67432375  0.67707987  0.51666806    -0.00200
Br643      Br  0.54058791  0.77454402  0.58021182     0.00300
Br644      Br  0.65184760  0.70509096  0.63464437    -0.04100
Br645      Br  0.73290050  0.76753811  0.57745803     0.00400
Br646      Br  0.61550679  0.69226558  0.55147757    -0.03400
Br647      Br  0.60361365  0.77805543  0.54897885    -0.04300
Br648      Br  0.59296863  0.70644139  0.67126154    -0.00300
C649        C  0.75053046  0.44434801  0.28990374     0.01100
C650        C  0.73139875  0.43046687  0.30839039     0.03900
C651        C  0.74137740  0.41659924  0.33288460    -0.12100
C652        C  0.77070058  0.41536188  0.33859570     0.23200
C653        C  0.79012357  0.42639633  0.31861500    -0.12700
C654        C  0.78009910  0.44056029  0.29404020     0.04600
C655        C  0.78033955  0.40134242  0.36529335     0.27100
C656        C  0.78147466  0.41695944  0.39090136    -0.13400
C657        C  0.78367439  0.40268072  0.41724471     0.05200
C658        C  0.78376250  0.37272334  0.41812369    -0.09400
C659        C  0.78426394  0.35726468  0.39229739     0.06000
C660        C  0.78312036  0.37158670  0.36600279    -0.13700
Br661      Br  0.83033962  0.42243760  0.32522019    -0.05800
Br662      Br  0.69161241  0.42808074  0.29908232    -0.00200
Br663      Br  0.78423737  0.42413276  0.45207762     0.00300
Br664      Br  0.78326884  0.35049026  0.33074462    -0.04100
Br665      Br  0.80706583  0.45431215  0.26630699     0.00400
Br666      Br  0.71471216  0.39952388  0.35906378    -0.03400
Br667      Br  0.77760318  0.45778891  0.38981091    -0.04300
Br668      Br  0.78528409  0.31629461  0.39267063    -0.00300
C669        C  0.74660606  0.56151136  0.29051583     0.01100
C670        C  0.77034716  0.55302680  0.30729709     0.03900
C671        C  0.77720848  0.56773508  0.33250492    -0.12100
C672        C  0.76062119  0.59092991  0.34136569     0.23200
C673        C  0.73807835  0.60053036  0.32419399    -0.12700
C674        C  0.73125241  0.58618872  0.29874738     0.04600
C675        C  0.76605465  0.60446290  0.36943191     0.27100
C676        C  0.75102778  0.59522889  0.39365272    -0.13400
C677        C  0.75476964  0.60914098  0.41994641     0.05200
C678        C  0.77437703  0.63169371  0.42241185    -0.09400
C679        C  0.79013002  0.64017130  0.39829904     0.06000
C680        C  0.78559800  0.62693229  0.37179386    -0.13700
Br681      Br  0.71583449  0.63283773  0.33644126    -0.05800
Br682      Br  0.79291231  0.52011831  0.29798513    -0.00200
Br683      Br  0.73238547  0.59777514  0.45241284     0.00300
Br684      Br  0.80487902  0.64058862  0.33823908    -0.04100
Br685      Br  0.70090866  0.60113612  0.27543928     0.00400
Br686      Br  0.80856034  0.55525528  0.35605849    -0.03400
Br687      Br  0.72458100  0.56408096  0.39034331    -0.04300
Br688      Br  0.81664396  0.67110262  0.40078344    -0.00300
C689        C  0.70542005  0.74083353  0.43971204     0.01100
C690        C  0.70425224  0.73377015  0.41051803     0.03900
C691        C  0.67954376  0.73984288  0.39449884    -0.12100
C692        C  0.65576564  0.75246885  0.40773906     0.23200
C693        C  0.65736617  0.76057644  0.43653817    -0.12700
C694        C  0.68216740  0.75505625  0.45234762     0.04600
C695        C  0.62810090  0.75445857  0.39247252     0.27100
C696        C  0.62050428  0.77925997  0.37749244    -0.13400
C697        C  0.59384040  0.78114060  0.36386721     0.05200
C698        C  0.57487611  0.75784371  0.36454498    -0.09400
C699        C  0.58231040  0.73335859  0.38030559     0.06000
C700        C  0.60886342  0.73161921  0.39399725    -0.13700
Br701      Br  0.62463854  0.77731896  0.45487619    -0.05800
Br702      Br  0.73546578  0.71371890  0.39308823    -0.00200
Br703      Br  0.58417821  0.81549209  0.34376709     0.00300
Br704      Br  0.61933041  0.69761238  0.41448886    -0.04100
Br705      Br  0.68367927  0.76612370  0.49179692     0.00400
Br706      Br  0.67725431  0.72922290  0.35488019    -0.03400
Br707      Br  0.64719937  0.81020792  0.37481212    -0.04300
Br708      Br  0.55558299  0.70251370  0.38427173    -0.00300
C709        C  0.56926042  0.69826378  0.25039235     0.01100
C710        C  0.58891018  0.68502476  0.26891353     0.03900
C711        C  0.60387393  0.66063188  0.26020322    -0.12100
C712        C  0.59980684  0.64955715  0.23267376     0.23200
C713        C  0.58191506  0.66392156  0.21333952    -0.12700
C714        C  0.56725545  0.68870110  0.22193924     0.04600
C715        C  0.61344015  0.62208435  0.22488281     0.27100
C716        C  0.64128189  0.62155956  0.21391665    -0.13400
C717        C  0.65544455  0.59544061  0.20996594     0.05200
C718        C  0.64172371  0.56961426  0.21691381    -0.09400
C719        C  0.61329730  0.57019205  0.22647557     0.06000
C720        C  0.59937378  0.59635430  0.23082927    -0.13700
Br721      Br  0.57562749  0.64805069  0.17600931    -0.05800
Br722      Br  0.59601646  0.70061738  0.30613969    -0.00200
Br723      Br  0.69448011  0.59558835  0.19728156     0.00300
Br724      Br  0.56149349  0.59717988  0.24650872    -0.04100
Br725      Br  0.54347089  0.70860108  0.19509363     0.00400
Br726      Br  0.62837448  0.64092895  0.28671317    -0.03400
Br727      Br  0.66055115  0.65684509  0.20599244    -0.04300
Br728      Br  0.59307553  0.53514851  0.23294407    -0.00300
C729        C  0.38121143  0.44432032  0.74659462     0.01100
C730        C  0.39658332  0.43924177  0.72122227     0.03900
C731        C  0.41033470  0.41298932  0.71704234    -0.12100
C732        C  0.40738829  0.39129780  0.73741398     0.23200
C733        C  0.39335417  0.39672575  0.76322971    -0.12700
C734        C  0.38190102  0.42373582  0.76854267     0.04600
C735        C  0.42071003  0.36327150  0.73276194     0.27100
C736        C  0.40660166  0.34219232  0.71691872    -0.13400
C737        C  0.41963186  0.31560083  0.71253315     0.05200
C738        C  0.44655595  0.30983858  0.72466430    -0.09400
C739        C  0.45934203  0.33045710  0.74260834     0.06000
C740        C  0.44712301  0.35748710  0.74534038    -0.13700
Br741      Br  0.38887236  0.36661075  0.79085675    -0.05800
Br742      Br  0.40020851  0.46866857  0.69288208    -0.00200
Br743      Br  0.40010077  0.28692902  0.69058658     0.00300
Br744      Br  0.46749460  0.38751557  0.76467757    -0.04100
Br745      Br  0.36829076  0.43191821  0.80629293     0.00400
Br746      Br  0.43336222  0.40646720  0.68366740    -0.03400
Br747      Br  0.36992392  0.35035960  0.70043703    -0.04300
Br748      Br  0.49384346  0.32307458  0.76350985    -0.00300
C749        C  0.36849677  0.57604906  0.76229885     0.01100
C750        C  0.36325333  0.59639770  0.78433475     0.03900
C751        C  0.37527969  0.62377124  0.78286245    -0.12100
C752        C  0.39390989  0.63079026  0.76065640     0.23200
C753        C  0.40037370  0.61057824  0.73955274    -0.12700
C754        C  0.38796488  0.58338221  0.74026497     0.04600
C755        C  0.40716431  0.65935570  0.75914017     0.27100
C756        C  0.39739130  0.67922350  0.73894148    -0.13400
C757        C  0.41419871  0.70290946  0.73216925     0.05200
C758        C  0.44098831  0.70630484  0.74506193    -0.09400
C759        C  0.44736912  0.69018333  0.76973356     0.06000
C760        C  0.43109251  0.66589120  0.77598866    -0.13700
Br761      Br  0.42614494  0.62067463  0.70905985    -0.05800
Br762      Br  0.34028625  0.58817362  0.81751830    -0.00200
Br763      Br  0.39982554  0.73202740  0.70714375     0.00300
Br764      Br  0.44274234  0.64059168  0.80621730    -0.04100
Br765      Br  0.39958734  0.55660704  0.71113935     0.00400
Br766      Br  0.36540091  0.65245266  0.81069948    -0.03400
Br767      Br  0.36195841  0.67290073  0.71938686    -0.04300
Br768      Br  0.47748647  0.70115531  0.79548914    -0.00300
C769        C  0.22634537  0.63158290  0.55950682     0.01100
C770        C  0.22528698  0.60165589  0.55949687     0.03900
C771        C  0.22557764  0.58660778  0.58548404    -0.12100
C772        C  0.22936437  0.60124550  0.61143009     0.23200
C773        C  0.22946873  0.63116252  0.61156623    -0.12700
C774        C  0.22745679  0.64630776  0.58576238     0.04600
C775        C  0.23976246  0.58560199  0.63698605     0.27100
C776        C  0.22182339  0.57920378  0.66012886    -0.13400
C777        C  0.23301550  0.56608760  0.68481542     0.05200
C778        C  0.26197685  0.55772494  0.68580938    -0.09400
C779        C  0.27963551  0.56361931  0.66197422     0.06000
C780        C  0.26870640  0.57821667  0.63826409    -0.13700
Br781      Br  0.23451613  0.65125198  0.64708516    -0.05800
Br782      Br  0.22488896  0.58126728  0.52390867    -0.00200
Br783      Br  0.20872681  0.56114176  0.71758751     0.00300
Br784      Br  0.29361745  0.58836649  0.60708398    -0.04100
Br785      Br  0.22899481  0.68726246  0.58655817     0.00400
Br786      Br  0.22192821  0.54581363  0.58579837    -0.03400
Br787      Br  0.18187648  0.58806632  0.65769050    -0.04300
Br788      Br  0.31854125  0.55027208  0.65978289    -0.00300
C789        C  0.44341044  0.75270497  0.36930376     0.01100
C790        C  0.43117667  0.77701029  0.38216143     0.03900
C791        C  0.40428226  0.77538549  0.39511215    -0.12100
C792        C  0.39015132  0.74909281  0.39716185     0.23200
C793        C  0.40378558  0.72423367  0.38735646    -0.12700
C794        C  0.43016640  0.72594656  0.37318183     0.04600
C795        C  0.36284078  0.74702461  0.41308272     0.27100
C796        C  0.36342101  0.74768166  0.44298705    -0.13400
C797        C  0.33806165  0.74551920  0.45848110     0.05200
C798        C  0.31219296  0.73919826  0.44466062    -0.09400
C799        C  0.31135995  0.73908114  0.41457936     0.06000
C800        C  0.33652678  0.74409859  0.39882309    -0.13700
Br801      Br  0.38672735  0.68764558  0.39455485    -0.05800
Br802      Br  0.45232748  0.81215641  0.38449824    -0.00200
Br803      Br  0.33872678  0.75338497  0.49858569     0.00300
Br804      Br  0.33518184  0.74685772  0.35786830    -0.04100
Br805      Br  0.44762532  0.69129052  0.35960439     0.00400
Br806      Br  0.38711445  0.80917628  0.41088975    -0.03400
Br807      Br  0.39928361  0.75029791  0.46290403    -0.04300
Br808      Br  0.27636748  0.73052071  0.39503712    -0.00300
C809        C  0.30555191  0.72384121  0.55758457     0.01100
C810        C  0.30374746  0.74429449  0.57937498     0.03900
C811        C  0.32790546  0.75045779  0.59596718    -0.12100
C812        C  0.35391595  0.73671200  0.59007086     0.23200
C813        C  0.35548870  0.71588552  0.56861973    -0.12700
C814        C  0.33122213  0.70879648  0.55303239     0.04600
C815        C  0.38000767  0.74341043  0.60619827     0.27100
C816        C  0.39638399  0.76725634  0.59868770    -0.13400
C817        C  0.42349658  0.77113793  0.61077851     0.05200
C818        C  0.43484903  0.75041671  0.62946173    -0.09400
C819        C  0.41913368  0.72524586  0.63472738     0.06000
C820        C  0.39113837  0.72282972  0.62480578    -0.13700
Br821      Br  0.39132745  0.69747536  0.55994336    -0.05800
Br822      Br  0.26788386  0.76254417  0.58731402    -0.00200
Br823      Br  0.44646841  0.80259297  0.59809991     0.00300
Br824      Br  0.36837164  0.69014042  0.63500917    -0.04100
Br825      Br  0.33439317  0.67962133  0.52407018     0.00400
Br826      Br  0.32542705  0.77735312  0.62682371    -0.03400
Br827      Br  0.38239647  0.79328498  0.57006817    -0.04300
Br828      Br  0.43579713  0.69236304  0.65296972    -0.00300
C829        C  0.26701986  0.44350526  0.68768438     0.01100
C830        C  0.28633375  0.42345063  0.67652731     0.03900
C831        C  0.27869161  0.40654583  0.65298122    -0.12100
C832        C  0.25166361  0.40967567  0.64037130     0.23200
C833        C  0.23188219  0.42878452  0.65226254    -0.12700
C834        C  0.23949771  0.44566233  0.67586749     0.04600
C835        C  0.24496722  0.39515890  0.61300534     0.27100
C836        C  0.25056924  0.40913336  0.58712749    -0.13400
C837        C  0.24494890  0.39559298  0.56098924     0.05200
C838        C  0.23291979  0.36804570  0.56039926    -0.09400
C839        C  0.22576485  0.35476418  0.58658877     0.06000
C840        C  0.23221696  0.36814201  0.61272119    -0.13700
Br841      Br  0.19496662  0.43293567  0.63478838    -0.05800
Br842      Br  0.32352966  0.41949023  0.69324595    -0.00200
Br843      Br  0.25291643  0.41573791  0.52616928     0.00300
Br844      Br  0.22409019  0.34939394  0.64836080    -0.04100
Br845      Br  0.21288966  0.47322184  0.69048234     0.00400
Br846      Br  0.30573239  0.38005579  0.63715707    -0.03400
Br847      Br  0.26561537  0.44729947  0.58770680    -0.04300
Br848      Br  0.20880121  0.31744643  0.58748740    -0.00300
C849        C  0.43633100  0.23995241  0.62033004     0.01100
C850        C  0.43355486  0.25768787  0.59612187     0.03900
C851        C  0.40652440  0.26368563  0.58493729    -0.12100
C852        C  0.38221827  0.25144180  0.59724638     0.23200
C853        C  0.38480372  0.23300105  0.62057377    -0.12700
C854        C  0.41175406  0.22670127  0.63178789     0.04600
C855        C  0.35429084  0.25566460  0.58355621     0.27100
C856        C  0.33620680  0.27769030  0.59240229    -0.13400
C857        C  0.31124614  0.28356191  0.57695307     0.05200
C858        C  0.30481919  0.26803432  0.55180872    -0.09400
C859        C  0.32253939  0.24472484  0.54417861     0.06000
C860        C  0.34675081  0.23832816  0.56047591    -0.13700
Br861      Br  0.35106666  0.21674868  0.63733647    -0.05800
Br862      Br  0.46657768  0.27215598  0.57647279    -0.00200
Br863      Br  0.28616402  0.31268439  0.59112794     0.00300
Br864      Br  0.37065594  0.20626177  0.55076934    -0.04100
Br865      Br  0.41383820  0.19968272  0.66271141     0.00400
Br866      Br  0.40255063  0.28886066  0.55265916    -0.03400
Br867      Br  0.34627974  0.30013084  0.62537298    -0.04300
Br868      Br  0.31633147  0.22252638  0.51014277    -0.00300
C869        C  0.37174360  0.56346239  0.22906756     0.01100
C870        C  0.37887276  0.57240637  0.25711687     0.03900
C871        C  0.39226764  0.59872152  0.26140664    -0.12100
C872        C  0.39807108  0.61656300  0.23812725     0.23200
C873        C  0.39127209  0.60779710  0.21033485    -0.12700
C874        C  0.37943226  0.58080710  0.20565900     0.04600
C875        C  0.41536226  0.64235042  0.24278682     0.27100
C876        C  0.40291407  0.66769313  0.25290491    -0.13400
C877        C  0.42035302  0.69069999  0.26091717     0.05200
C878        C  0.45017457  0.68802680  0.25929505    -0.09400
C879        C  0.46237161  0.66271167  0.24885212     0.06000
C880        C  0.44503334  0.64019929  0.24008914    -0.13700
Br881      Br  0.39857867  0.63282392  0.17865549    -0.05800
Br882      Br  0.37086887  0.54951860  0.29043249    -0.00200
Br883      Br  0.40355351  0.72564346  0.27428174     0.00300
Br884      Br  0.46204251  0.60564012  0.22566105    -0.04100
Br885      Br  0.37676798  0.56685783  0.16696891     0.00400
Br886      Br  0.40336710  0.61040229  0.29933820    -0.03400
Br887      Br  0.36215815  0.67020211  0.25666245    -0.04300
Br888      Br  0.50292398  0.65750214  0.24878998    -0.00300
C889        C  0.27149360  0.55319227  0.30014788     0.01100
C890        C  0.28263584  0.58092105  0.30319904     0.03900
C891        C  0.27661243  0.59688305  0.32782867    -0.12100
C892        C  0.25902901  0.58546344  0.34914457     0.23200
C893        C  0.24710390  0.55836446  0.34586208    -0.12700
C894        C  0.25358180  0.54207452  0.32169154     0.04600
C895        C  0.25362659  0.60145144  0.37561415     0.27100
C896        C  0.27027057  0.59601046  0.39993375    -0.13400
C897        C  0.26468401  0.61058219  0.42538484     0.05200
C898        C  0.24256351  0.63077029  0.42650269    -0.09400
C899        C  0.22536735  0.63555218  0.40230686     0.06000
C900        C  0.23109467  0.62106088  0.37681550    -0.13700
Br901      Br  0.22256917  0.54332985  0.37528350    -0.05800
Br902      Br  0.30556887  0.59754919  0.27354358    -0.00200
Br903      Br  0.28701227  0.60253303  0.45899519     0.00300
Br904      Br  0.20869432  0.62860560  0.34315458    -0.04100
Br905      Br  0.23961648  0.50367948  0.32016942     0.00400
Br906      Br  0.29283821  0.63418961  0.33295732    -0.03400
Br907      Br  0.30109236  0.56899444  0.39808949    -0.04300
Br908      Br  0.19466723  0.66253958  0.40308067    -0.00300
C909        C  0.26522655  0.43637013  0.29293109     0.01100
C910        C  0.23585718  0.43195885  0.29773841     0.03900
C911        C  0.22681376  0.41657655  0.32184442    -0.12100
C912        C  0.24692185  0.40602782  0.34137151     0.23200
C913        C  0.27611676  0.40909562  0.33593976    -0.12700
C914        C  0.28529238  0.42372010  0.31160390     0.04600
C915        C  0.23800614  0.39224105  0.36824026     0.27100
C916        C  0.23380923  0.40884900  0.39289014    -0.13400
C917        C  0.23144344  0.39567636  0.41968321     0.05200
C918        C  0.23420444  0.36598099  0.42192681    -0.09400
C919        C  0.23694474  0.34931586  0.39700541     0.06000
C920        C  0.23841770  0.36243878  0.37020489    -0.13700
Br921      Br  0.30358254  0.39429276  0.36288321    -0.05800
Br922      Br  0.20763412  0.44929824  0.27340939    -0.00200
Br923      Br  0.22696570  0.41848698  0.45341922     0.00300
Br924      Br  0.24306450  0.33982181  0.33619061    -0.04100
Br925      Br  0.32565894  0.42616870  0.30439723     0.00400
Br926      Br  0.18688795  0.41092590  0.32900094    -0.03400
Br927      Br  0.23379641  0.44974356  0.39015616    -0.04300
Br928      Br  0.23948785  0.30844553  0.39928805    -0.00300
C929        C  0.70507341  0.26960441  0.43135019     0.01100
C930        C  0.69357726  0.24216659  0.43522883     0.03900
C931        C  0.66831084  0.23444836  0.42111625    -0.12100
C932        C  0.65459209  0.25395940  0.40295954     0.23200
C933        C  0.66650917  0.28099464  0.39837077    -0.12700
C934        C  0.69174701  0.28872485  0.41237046     0.04600
C935        C  0.62709365  0.24643773  0.38943399     0.27100
C936        C  0.62666595  0.23238954  0.36300407    -0.13400
C937        C  0.60058200  0.22641086  0.34955318     0.05200
C938        C  0.57463354  0.23480979  0.36244590    -0.09400
C939        C  0.57526312  0.24724054  0.38985575     0.06000
C940        C  0.60139025  0.25330493  0.40312257    -0.13700
Br941      Br  0.64733010  0.30805615  0.37412371    -0.05800
Br942      Br  0.71083953  0.21591351  0.46168645    -0.00200
Br943      Br  0.60122991  0.20766613  0.31300975     0.00300
Br944      Br  0.60218580  0.27136939  0.44004186    -0.04100
Br945      Br  0.70784467  0.32580065  0.40565821     0.00400
Br946      Br  0.65121811  0.19785064  0.42798883    -0.03400
Br947      Br  0.66211403  0.22199831  0.34504910    -0.04300
Br948      Br  0.54045007  0.25443366  0.41024347    -0.00300
C949        C  0.43663795  0.23854392  0.36166627     0.01100
C950        C  0.41182318  0.24185887  0.34496908     0.03900
C951        C  0.38499819  0.24399339  0.35796703    -0.12100
C952        C  0.38256249  0.24225678  0.38775905     0.23200
C953        C  0.40692364  0.23644234  0.40434273    -0.12700
C954        C  0.43392520  0.23445419  0.39132256     0.04600
C955        C  0.35519273  0.24993979  0.40175411     0.27100
C956        C  0.34884016  0.27876567  0.40635925    -0.13400
C957        C  0.32401472  0.28659078  0.42105798     0.05200
C958        C  0.30563527  0.26556413  0.43242630    -0.09400
C959        C  0.31092062  0.23667070  0.42567881     0.06000
C960        C  0.33555750  0.22899831  0.41017970    -0.13700
Br961      Br  0.40325207  0.23243666  0.44506629    -0.05800
Br962      Br  0.41416050  0.24238305  0.30399085    -0.00200
Br963      Br  0.31511032  0.32652710  0.42416745     0.00300
Br964      Br  0.34276297  0.18985227  0.40039786    -0.04100
Br965      Br  0.46705006  0.22732418  0.41433241     0.00400
Br966      Br  0.35153370  0.25054097  0.33508976    -0.03400
Br967      Br  0.37464551  0.30766787  0.39266992    -0.04300
Br968      Br  0.28548670  0.20721359  0.43834349    -0.00300
C969        C  0.56267929  0.30830743  0.25840027     0.01100
C970        C  0.54967377  0.33034847  0.24241735     0.03900
C971        C  0.56427783  0.35572709  0.23688515    -0.12100
C972        C  0.59253925  0.35874730  0.24578661     0.23200
C973        C  0.60660369  0.33604557  0.25928070    -0.12700
C974        C  0.59154178  0.31112380  0.26624677     0.04600
C975        C  0.60731593  0.38600577  0.24101202     0.27100
C976        C  0.62055683  0.39129270  0.21474014    -0.13400
C977        C  0.63405637  0.41742155  0.20985831     0.05200
C978        C  0.63558958  0.43784734  0.23191603    -0.09400
C979        C  0.62144990  0.43277928  0.25798443     0.06000
C980        C  0.60719256  0.40695544  0.26240231    -0.13700
Br981      Br  0.64658568  0.33941492  0.26776815    -0.05800
Br982      Br  0.51154730  0.32715177  0.22853699    -0.00200
Br983      Br  0.65091827  0.42413538  0.17306595     0.00300
Br984      Br  0.58774011  0.39995985  0.29789576    -0.04100
Br985      Br  0.61083451  0.28072632  0.28570198     0.00400
Br986      Br  0.54542277  0.38697057  0.21774162    -0.03400
Br987      Br  0.62106045  0.36205181  0.18589245    -0.04300
Br988      Br  0.62071527  0.46148509  0.28747492    -0.00300
C989        C  0.44673466  0.30495019  0.25557213     0.01100
C990        C  0.43402794  0.32391186  0.27529381     0.03900
C991        C  0.41966696  0.34831583  0.26577103    -0.12100
C992        C  0.41763543  0.35415640  0.23645830     0.23200
C993        C  0.42850532  0.33450317  0.21656669    -0.12700
C994        C  0.44247563  0.30961159  0.22602218     0.04600
C995        C  0.40312966  0.38068463  0.22713023     0.27100
C996        C  0.37455147  0.37959402  0.21822760    -0.13400
C997        C  0.35882123  0.40481845  0.21533248     0.05200
C998        C  0.37161010  0.43127035  0.22085255    -0.09400
C999        C  0.40071004  0.43261982  0.22767259     0.06000
C1000       C  0.41645273  0.40732120  0.23102878    -0.13700
Br1001     Br  0.42541612  0.34257000  0.17636189    -0.05800
Br1002     Br  0.43531664  0.31659710  0.31572779    -0.00200
Br1003     Br  0.31919534  0.40304696  0.20517808     0.00300
Br1004     Br  0.45555989  0.40900344  0.24338147    -0.04100
Br1005     Br  0.45738016  0.28342489  0.19805917     0.00400
Br1006     Br  0.40323205  0.37439752  0.29311120    -0.03400
Br1007     Br  0.35619737  0.34346984  0.21208467    -0.04300
Br1008     Br  0.41831388  0.46900433  0.23445396    -0.00300
C1009       C  0.67708423  0.93337888  0.74712271     0.01100
C1010       C  0.67651968  0.90665270  0.76110368     0.03900
C1011       C  0.65646678  0.88600288  0.75323980    -0.12100
C1012       C  0.63826809  0.89094910  0.73006099     0.23200
C1013       C  0.64097057  0.91592155  0.71388847    -0.12700
C1014       C  0.66030813  0.93714860  0.72224731     0.04600
C1015       C  0.61536107  0.87043008  0.72362992     0.27100
C1016       C  0.62082805  0.84643578  0.70659510    -0.13400
C1017       C  0.59923067  0.82638627  0.70166988     0.05200
C1018       C  0.57201891  0.83036291  0.71380629    -0.09400
C1019       C  0.56659188  0.85472577  0.73062742     0.06000
C1020       C  0.58822446  0.87469180  0.73542393    -0.13700
Br1021     Br  0.61707579  0.92130980  0.68087731    -0.05800
Br1022     Br  0.70469202  0.89669841  0.78922804    -0.00200
Br1023     Br  0.60758550  0.79294507  0.67933486     0.00300
Br1024     Br  0.58080318  0.90825464  0.75799036    -0.04100
Br1025     Br  0.66283327  0.97099464  0.69915027     0.00400
Br1026     Br  0.65293316  0.85122932  0.77487997    -0.03400
Br1027     Br  0.65803185  0.84121863  0.69013374    -0.04300
Br1028     Br  0.52926703  0.86190881  0.74615099    -0.00300
C1029       C  0.57195081  0.17339168  0.71766729     0.01100
C1030       C  0.59320829  0.16404171  0.69809407     0.03900
C1031       C  0.61263226  0.14259272  0.70593974    -0.12100
C1032       C  0.61171061  0.13067953  0.73333639     0.23200
C1033       C  0.59205186  0.14078282  0.75338127    -0.12700
C1034       C  0.57178983  0.16144498  0.74564977     0.04600
C1035       C  0.63100688  0.10687973  0.74095347     0.27100
C1036       C  0.62101466  0.07870227  0.74002475    -0.13400
C1037       C  0.63924352  0.05601840  0.74709305     0.05200
C1038       C  0.66762758  0.06144685  0.75541412    -0.09400
C1039       C  0.67708287  0.08991266  0.75752690     0.06000
C1040       C  0.65896158  0.11246827  0.74987987    -0.13700
Br1041     Br  0.59316500  0.12586660  0.79176229    -0.05800
Br1042     Br  0.59709162  0.17991576  0.66018579    -0.00200
Br1043     Br  0.62493949  0.01770659  0.74472911     0.00300
Br1044     Br  0.67208312  0.15126079  0.75207593    -0.04100
Br1045     Br  0.54332891  0.17098950  0.77388939     0.00400
Br1046     Br  0.64086608  0.12918086  0.67916751    -0.03400
Br1047     Br  0.58208441  0.07133675  0.72924130    -0.04300
Br1048     Br  0.71380306  0.09857157  0.77356619    -0.00300
C1049       C  0.76386936  0.31621643  0.06364624     0.01100
C1050       C  0.78400156  0.32189048  0.08527954     0.03900
C1051       C  0.77853567  0.34271571  0.10617680    -0.12100
C1052       C  0.75307848  0.35842948  0.10541025     0.23200
C1053       C  0.73222055  0.35171363  0.08490495    -0.12700
C1054       C  0.73736661  0.33026072  0.06446849     0.04600
C1055       C  0.74897019  0.38297919  0.12513086     0.27100
C1056       C  0.73621812  0.37912051  0.15200936    -0.13400
C1057       C  0.73152622  0.40264487  0.17004651     0.05200
C1058       C  0.73957012  0.43020657  0.16129366    -0.09400
C1059       C  0.75410928  0.43373154  0.13523948     0.06000
C1060       C  0.75834908  0.41026663  0.11704247    -0.13700
Br1061     Br  0.69730287  0.37318815  0.08392971    -0.05800
Br1062     Br  0.81902649  0.30092620  0.08680256    -0.00200
Br1063     Br  0.71557078  0.39691090  0.20750666     0.00300
Br1064     Br  0.77631533  0.41554328  0.08050049    -0.04100
Br1065     Br  0.70851737  0.32083135  0.03694505     0.00400
Br1066     Br  0.80630736  0.35061206  0.13541935    -0.03400
Br1067     Br  0.72513421  0.34155112  0.16395381    -0.04300
Br1068     Br  0.76765018  0.47076321  0.12393042    -0.00300
C1069       C  0.73292635  0.43225739  0.82783474     0.01100
C1070       C  0.71517005  0.42975200  0.85218479     0.03900
C1071       C  0.72073984  0.40884059  0.87277998    -0.12100
C1072       C  0.74447588  0.39095891  0.86998661     0.23200
C1073       C  0.76192012  0.39282296  0.84572117    -0.12700
C1074       C  0.75600391  0.41317193  0.82448178     0.04600
C1075       C  0.75091977  0.37042467  0.89300229     0.27100
C1076       C  0.76489310  0.37975186  0.91783587    -0.13400
C1077       C  0.76969642  0.36070845  0.94037366     0.05200
C1078       C  0.76076903  0.33221018  0.93808057    -0.09400
C1079       C  0.74551294  0.32329385  0.91380080     0.06000
C1080       C  0.74100230  0.34228617  0.89110673    -0.13700
Br1081     Br  0.79364275  0.36705434  0.84158967    -0.05800
Br1082     Br  0.68374455  0.45546253  0.85899343    -0.00200
Br1083     Br  0.78758925  0.37387512  0.97497197     0.00300
Br1084     Br  0.72180513  0.32974996  0.85702618    -0.04100
Br1085     Br  0.77866492  0.41335899  0.79022542     0.00400
Br1086     Br  0.69570437  0.40426284  0.90511284    -0.03400
Br1087     Br  0.77765852  0.41860908  0.92077194    -0.04300
Br1088     Br  0.73159918  0.28493943  0.91088833    -0.00300
C1089       C  0.75366915  0.19904187  0.92504182     0.01100
C1090       C  0.72795117  0.18456322  0.93047888     0.03900
C1091       C  0.72075087  0.16015540  0.91449866    -0.12100
C1092       C  0.73866703  0.15065475  0.89230840     0.23200
C1093       C  0.76225926  0.16735759  0.88446373    -0.12700
C1094       C  0.76987770  0.19121255  0.90096997     0.04600
C1095       C  0.73491728  0.12148410  0.88012368     0.27100
C1096       C  0.75308670  0.09931545  0.88906309    -0.13400
C1097       C  0.74945804  0.07140884  0.87866052     0.05200
C1098       C  0.72717879  0.06511330  0.85924026    -0.09400
C1099       C  0.70690295  0.08688554  0.85328145     0.06000
C1100       C  0.71197978  0.11514300  0.86194668    -0.13700
Br1101     Br  0.78533154  0.15629339  0.85228981    -0.05800
Br1102     Br  0.70411874  0.19599835  0.96189346    -0.00200
Br1103     Br  0.77385461  0.04185445  0.89370217     0.00300
Br1104     Br  0.68783424  0.14542163  0.84813538    -0.04100
Br1105     Br  0.80316255  0.21265176  0.89104578     0.00400
Br1106     Br  0.68776195  0.13809980  0.92484051    -0.03400
Br1107     Br  0.78321911  0.10727087  0.91589822    -0.04300
Br1108     Br  0.67029872  0.07866312  0.83627455    -0.00300
C1109       C  0.83986139  0.73367284  0.55995849     0.01100
C1110       C  0.86420464  0.75033025  0.55470230     0.03900
C1111       C  0.88405616  0.75562071  0.57662710    -0.12100
C1112       C  0.87930162  0.74525258  0.60440879     0.23200
C1113       C  0.85446294  0.72936274  0.60995396    -0.12700
C1114       C  0.83494864  0.72339760  0.58777831     0.04600
C1115       C  0.89962914  0.75274745  0.62789022     0.27100
C1116       C  0.92398445  0.73596373  0.63327851    -0.13400
C1117       C  0.94443342  0.74483991  0.65355293     0.05200
C1118       C  0.94099182  0.77082847  0.66820333    -0.09400
C1119       C  0.91582141  0.78661942  0.66402152     0.06000
C1120       C  0.89541186  0.77781048  0.64381949    -0.13700
Br1121     Br  0.84730929  0.71577830  0.64798846    -0.05800
Br1122     Br  0.86949566  0.76739911  0.51778828    -0.00200
Br1123     Br  0.97741671  0.72165576  0.66105027     0.00300
Br1124     Br  0.86215932  0.80081575  0.63684009    -0.04100
Br1125     Br  0.80165588  0.70075650  0.59532169     0.00400
Br1126     Br  0.91800130  0.77712331  0.56867953    -0.03400
Br1127     Br  0.92993427  0.70155978  0.61178779    -0.04300
Br1128     Br  0.90894069  0.82002967  0.68659198    -0.00300
C1129       C  0.06307569  0.77458089  0.65463612     0.01100
C1130       C  0.05490916  0.77276070  0.62583407     0.03900
C1131       C  0.07465353  0.76393296  0.60524619    -0.12100
C1132       C  0.10288189  0.75809854  0.61332346     0.23200
C1133       C  0.11086993  0.75914530  0.64220445    -0.12700
C1134       C  0.09081521  0.76694129  0.66296330     0.04600
C1135       C  0.12427122  0.75079566  0.59149369     0.27100
C1136       C  0.12736852  0.72248454  0.58274914    -0.13400
C1137       C  0.14735702  0.71543889  0.56172013     0.05200
C1138       C  0.16614834  0.73647217  0.55092386    -0.09400
C1139       C  0.16320453  0.76490786  0.56031150     0.06000
C1140       C  0.14164662  0.77211127  0.57982862    -0.13700
Br1141     Br  0.14945521  0.75022717  0.65299554    -0.05800
Br1142     Br  0.01669598  0.78268173  0.61459696    -0.00200
Br1143     Br  0.14791153  0.67668432  0.54825183     0.00300
Br1144     Br  0.13504249  0.81128774  0.59016846    -0.04100
Br1145     Br  0.10155377  0.76785026  0.70257075     0.00400
Br1146     Br  0.06313676  0.75977445  0.56602652    -0.03400
Br1147     Br  0.10409324  0.69335344  0.59999374    -0.04300
Br1148     Br  0.18729018  0.79457050  0.54549896    -0.00300
C1149       C  0.94355964  0.88907695  0.72213045     0.01100
C1150       C  0.92583244  0.89322109  0.69804495     0.03900
C1151       C  0.89793774  0.90330102  0.70151343    -0.12100
C1152       C  0.88867250  0.91265133  0.72838463     0.23200
C1153       C  0.90744677  0.91215619  0.75172312    -0.12700
C1154       C  0.93452128  0.89970174  0.74897369     0.04600
C1155       C  0.85988517  0.92492766  0.73192548     0.27100
C1156       C  0.85460646  0.95291207  0.72275098    -0.13400
C1157       C  0.82850871  0.96591231  0.72890760     0.05200
C1158       C  0.80808607  0.95157281  0.74541835    -0.09400
C1159       C  0.81282473  0.92320192  0.75370045     0.06000
C1160       C  0.83858687  0.90969729  0.74655299    -0.13700
Br1161     Br  0.89574335  0.92866352  0.78759397    -0.05800
Br1162     Br  0.93999026  0.88727364  0.65980244    -0.00200
Br1163     Br  0.82124915  0.00387814  0.71542172     0.00300
Br1164     Br  0.84549992  0.87099278  0.75824376    -0.04100
Br1165     Br  0.95796807  0.89701385  0.78271148     0.00400
Br1166     Br  0.87210103  0.90363444  0.66955182    -0.03400
Br1167     Br  0.88401707  0.97437773  0.70383807    -0.04300
Br1168     Br  0.78480330  0.90354632  0.77620026    -0.00300
C1169       C  0.34886957  0.06194605  0.75836976     0.01100
C1170       C  0.35068622  0.07403192  0.73080016     0.03900
C1171       C  0.37089245  0.09538885  0.72501822    -0.12100
C1172       C  0.38966733  0.10457549  0.74647926     0.23200
C1173       C  0.38855531  0.09214637  0.77364084    -0.12700
C1174       C  0.36863618  0.07068761  0.77956385     0.04600
C1175       C  0.41100376  0.12704444  0.74044608     0.27100
C1176       C  0.43865195  0.11949100  0.73190522    -0.13400
C1177       C  0.45896812  0.14067966  0.72656425     0.05200
C1178       C  0.45113903  0.16973115  0.72724669    -0.09400
C1179       C  0.42366357  0.17728739  0.73716101     0.06000
C1180       C  0.40398502  0.15587939  0.74438166    -0.13700
Br1181     Br  0.41440884  0.10504366  0.80290197    -0.05800
Br1182     Br  0.32756368  0.05977541  0.69998003    -0.00200
Br1183     Br  0.49817230  0.12959443  0.72100921     0.00300
Br1184     Br  0.36738751  0.16570735  0.76018641    -0.04100
Br1185     Br  0.36922827  0.05392977  0.81717646     0.00400
Br1186     Br  0.37326944  0.11208801  0.68755112    -0.03400
Br1187     Br  0.44870975  0.07996907  0.72747457    -0.04300
Br1188     Br  0.41202208  0.21656559  0.74023464    -0.00300
C1189       C  0.34205402  0.93898101  0.75524884     0.01100
C1190       C  0.33477876  0.91005690  0.75819525     0.03900
C1191       C  0.35481149  0.88873626  0.75169621    -0.12100
C1192       C  0.38271608  0.89626518  0.74392083     0.23200
C1193       C  0.39025808  0.92514396  0.74184058    -0.12700
C1194       C  0.36980164  0.94644331  0.74669539     0.04600
C1195       C  0.40414846  0.87402285  0.73719448     0.27100
C1196       C  0.42017036  0.86119866  0.75904377    -0.13400
C1197       C  0.44210649  0.84185149  0.75233731     0.05200
C1198       C  0.44755971  0.83441894  0.72360906    -0.09400
C1199       C  0.43094125  0.84716073  0.70185576     0.06000
C1200       C  0.40957235  0.86696852  0.70864596    -0.13700
Br1201     Br  0.42910247  0.93537322  0.73355559    -0.05800
Br1202     Br  0.29747448  0.89969141  0.77159965    -0.00200
Br1203     Br  0.46585818  0.82751730  0.78268598     0.00300
Br1204     Br  0.38751166  0.88476809  0.67876827    -0.04100
Br1205     Br  0.38051103  0.98582861  0.74316681     0.00400
Br1206     Br  0.34423960  0.84921204  0.75364282    -0.03400
Br1207     Br  0.41213561  0.87059013  0.79821326    -0.04300
Br1208     Br  0.43611607  0.83735041  0.66250048    -0.00300
C1209       C  0.07457853  0.88811882  0.71278814     0.01100
C1210       C  0.09831610  0.87914364  0.69680331     0.03900
C1211       C  0.12474472  0.89265943  0.70034133    -0.12100
C1212       C  0.12727025  0.91591059  0.71902729     0.23200
C1213       C  0.10297342  0.92659407  0.73295764    -0.12700
C1214       C  0.07673301  0.91255058  0.73006106     0.04600
C1215       C  0.15572698  0.92745884  0.72624069     0.27100
C1216       C  0.17093597  0.91589809  0.74939102    -0.13400
C1217       C  0.19686382  0.92807941  0.75791842     0.05200
C1218       C  0.20707960  0.95262041  0.74416426    -0.09400
C1219       C  0.19214637  0.96380458  0.72060193     0.06000
C1220       C  0.16685772  0.95083083  0.71125215    -0.13700
Br1221     Br  0.10626780  0.95933160  0.75751983    -0.05800
Br1222     Br  0.09528345  0.84732988  0.67130576    -0.00200
Br1223     Br  0.21815030  0.91150184  0.78882426     0.00300
Br1224     Br  0.14663084  0.96581734  0.67882130    -0.04100
Br1225     Br  0.04387531  0.92612067  0.75054339     0.00400
Br1226     Br  0.15804481  0.87797737  0.68141691    -0.03400
Br1227     Br  0.15519150  0.88446802  0.77053373    -0.04300
Br1228     Br  0.20483236  0.99841587  0.70273065    -0.00300
C1229       C  0.75366606  0.55374054  0.82505309     0.01100
C1230       C  0.74997799  0.54991013  0.85482793     0.03900
C1231       C  0.75460942  0.57259444  0.87371636    -0.12100
C1232       C  0.76580318  0.59835177  0.86363268     0.23200
C1233       C  0.77254695  0.60132486  0.83459121    -0.12700
C1234       C  0.76563891  0.57956837  0.81512969     0.04600
C1235       C  0.77147274  0.62190304  0.88387916     0.27100
C1236       C  0.75229410  0.64483678  0.88624152    -0.13400
C1237       C  0.75767253  0.66704584  0.90563289     0.05200
C1238       C  0.78193449  0.66602569  0.92330202    -0.09400
C1239       C  0.80114269  0.64284231  0.92083276     0.06000
C1240       C  0.79588068  0.62099212  0.90113931    -0.13700
Br1241     Br  0.79150502  0.63535672  0.82174628    -0.05800
Br1242     Br  0.74067340  0.51314509  0.87070201    -0.00200
Br1243     Br  0.73260414  0.69953903  0.90665491     0.00300
Br1244     Br  0.82182825  0.58921769  0.89812720    -0.04100
Br1245     Br  0.77172237  0.58648360  0.77510202     0.00400
Br1246     Br  0.74529085  0.56859511  0.91359961    -0.03400
Br1247     Br  0.71828541  0.64536148  0.86327995    -0.04300
Br1248     Br  0.83435273  0.63968332  0.94502263    -0.00300
C1249       C  0.77249836  0.66035342  0.04291910     0.01100
C1250       C  0.77561837  0.63111641  0.03631463     0.03900
C1251       C  0.77065791  0.61038441  0.05726881    -0.12100
C1252       C  0.76074468  0.61849203  0.08427847     0.23200
C1253       C  0.75542011  0.64724136  0.09036998    -0.12700
C1254       C  0.76138807  0.66823031  0.06995240     0.04600
C1255       C  0.75436811  0.59664803  0.10595228     0.27100
C1256       C  0.72753533  0.58374328  0.10623292    -0.13400
C1257       C  0.72073237  0.56391033  0.12751004     0.05200
C1258       C  0.74109675  0.55662355  0.14878102    -0.09400
C1259       C  0.76808367  0.57006575  0.14836386     0.06000
C1260       C  0.77469365  0.58967044  0.12673135    -0.13700
Br1261     Br  0.73965822  0.65764004  0.12693109    -0.05800
Br1262     Br  0.78319297  0.61868816  0.99791525    -0.00200
Br1263     Br  0.68253422  0.54869765  0.12752580     0.00300
Br1264     Br  0.81192224  0.60678586  0.12486664    -0.04100
Br1265     Br  0.75436488  0.70751175  0.08017435     0.00400
Br1266     Br  0.77706125  0.57063282  0.04912403    -0.03400
Br1267     Br  0.70010460  0.59357029  0.07710020    -0.04300
Br1268     Br  0.79680233  0.56187804  0.17664999    -0.00300
C1269       C  0.87431261  0.75788647  0.92558560     0.01100
C1270       C  0.89144112  0.78251507  0.92635827     0.03900
C1271       C  0.90721867  0.79071013  0.90224397    -0.12100
C1272       C  0.90684517  0.77381444  0.87752819     0.23200
C1273       C  0.89054476  0.74882142  0.87685843    -0.12700
C1274       C  0.87349779  0.74142572  0.90034235     0.04600
C1275       C  0.92414252  0.78178086  0.85236240     0.27100
C1276       C  0.91221141  0.79814097  0.83020182    -0.13400
C1277       C  0.92828433  0.80420989  0.80562691     0.05200
C1278       C  0.95640307  0.79392581  0.80320047    -0.09400
C1279       C  0.96842861  0.77810419  0.82583255     0.06000
C1280       C  0.95230544  0.77201765  0.85022389    -0.13700
Br1281     Br  0.89205268  0.72460310  0.84361972    -0.05800
Br1282     Br  0.89383243  0.80487745  0.96068826    -0.00200
Br1283     Br  0.91129671  0.82563010  0.77493104     0.00300
Br1284     Br  0.96883244  0.75035680  0.88101456    -0.04100
Br1285     Br  0.84732873  0.71041263  0.89613542     0.00400
Br1286     Br  0.92952493  0.82504384  0.90289435    -0.03400
Br1287     Br  0.87381225  0.81215706  0.83368394    -0.04300
Br1288     Br  0.00757426  0.76594303  0.82469572    -0.00300
C1289       C  0.76105986  0.80412261  0.93655392     0.01100
C1290       C  0.76594769  0.80080340  0.90708982     0.03900
C1291       C  0.76002502  0.82339040  0.88826533    -0.12100
C1292       C  0.74920958  0.84929915  0.89889197     0.23200
C1293       C  0.74339582  0.85219879  0.92817080    -0.12700
C1294       C  0.74951132  0.82983984  0.94695637     0.04600
C1295       C  0.74688159  0.87485287  0.88050075     0.27100
C1296       C  0.77124571  0.89133789  0.87547845    -0.13400
C1297       C  0.76875372  0.91842550  0.86308722     0.05200
C1298       C  0.74159401  0.92932378  0.85527288    -0.09400
C1299       C  0.71709393  0.91270587  0.86092830     0.06000
C1300       C  0.71999087  0.88517181  0.87239306    -0.13700
Br1301     Br  0.72875787  0.88771871  0.94292807    -0.05800
Br1302     Br  0.78396992  0.76669448  0.89294225    -0.00200
Br1303     Br  0.80302880  0.94092280  0.85942621     0.00300
Br1304     Br  0.68715913  0.86107807  0.87692307    -0.04100
Br1305     Br  0.74310275  0.83535751  0.98718146     0.00400
Br1306     Br  0.76857090  0.81958633  0.84828430    -0.03400
Br1307     Br  0.80826013  0.87679450  0.88616191    -0.04300
Br1308     Br  0.67917699  0.92694028  0.85373372    -0.00300
C1309       C  0.07336649  0.77305349  0.31969220     0.01100
C1310       C  0.09426085  0.75249414  0.31317828     0.03900
C1311       C  0.11572714  0.74596227  0.33323498    -0.12100
C1312       C  0.11610142  0.75967751  0.35998410     0.23200
C1313       C  0.09505511  0.77984028  0.36660244    -0.12700
C1314       C  0.07375825  0.78643317  0.34668760     0.04600
C1315       C  0.13684139  0.75145504  0.38246128     0.27100
C1316       C  0.12977071  0.72946745  0.40146254    -0.13400
C1317       C  0.14754291  0.72332551  0.42470061     0.05200
C1318       C  0.17327320  0.73838384  0.42857950    -0.09400
C1319       C  0.17963776  0.76142432  0.41043917     0.06000
C1320       C  0.16135831  0.76797377  0.38746819    -0.13700
Br1321     Br  0.09506385  0.79776484  0.40366112    -0.05800
Br1322     Br  0.09362587  0.73348068  0.27682386    -0.00200
Br1323     Br  0.13501290  0.69590081  0.45272796     0.00300
Br1324     Br  0.16906755  0.80027652  0.36344274    -0.04100
Br1325     Br  0.04393401  0.81235277  0.35772882     0.00400
Br1326     Br  0.14454014  0.71816829  0.32430472    -0.03400
Br1327     Br  0.09477619  0.70867235  0.39643590    -0.04300
Br1328     Br  0.21299431  0.78422606  0.41704256    -0.00300
C1329       C  0.95140630  0.77116344  0.33193533     0.01100
C1330       C  0.93625437  0.74506037  0.33240592     0.03900
C1331       C  0.91527757  0.74004402  0.35331006    -0.12100
C1332       C  0.90898062  0.76078181  0.37397438     0.23200
C1333       C  0.92405901  0.78649745  0.37409060    -0.12700
C1334       C  0.94518447  0.79177933  0.35343412     0.04600
C1335       C  0.88747376  0.75472715  0.39650827     0.27100
C1336       C  0.85885861  0.76310477  0.39303284    -0.13400
C1337       C  0.83825225  0.75522429  0.41342785     0.05200
C1338       C  0.84613829  0.73854876  0.43713666    -0.09400
C1339       C  0.87490098  0.73065433  0.44076046     0.06000
C1340       C  0.89550917  0.73917930  0.42084115    -0.13700
Br1341     Br  0.91566451  0.81445131  0.40310209    -0.05800
Br1342     Br  0.94469083  0.71490019  0.30578181    -0.00200
Br1343     Br  0.79898082  0.76548641  0.40780268     0.00300
Br1344     Br  0.93487764  0.72909240  0.42650812    -0.04100
Br1345     Br  0.96435245  0.82811478  0.35532566     0.00400
Br1346     Br  0.89521994  0.70426640  0.35432497    -0.03400
Br1347     Br  0.84791900  0.78456229  0.35977972    -0.04300
Br1348     Br  0.88623901  0.70749346  0.47277996    -0.00300
C1349       C  0.87354949  0.73472496  0.05856635     0.01100
C1350       C  0.86295382  0.72041387  0.08293910     0.03900
C1351       C  0.87550914  0.72471187  0.10983121    -0.12100
C1352       C  0.89888610  0.74305082  0.11275508     0.23200
C1353       C  0.91094310  0.75552133  0.08827838    -0.12700
C1354       C  0.89852178  0.75115749  0.06125673     0.04600
C1355       C  0.91049501  0.74948588  0.14161299     0.27100
C1356       C  0.90177883  0.77415590  0.15620505    -0.13400
C1357       C  0.91480797  0.78180993  0.18217067     0.05200
C1358       C  0.93645062  0.76446911  0.19403407    -0.09400
C1359       C  0.94061208  0.73695490  0.18208777     0.06000
C1360       C  0.92925779  0.73044823  0.15505700    -0.13700
Br1361     Br  0.94459039  0.77856519  0.09188643    -0.05800
Br1362     Br  0.83059023  0.69550824  0.08056037    -0.00200
Br1363     Br  0.90116552  0.81495307  0.20214071     0.00300
Br1364     Br  0.94100152  0.69630760  0.13542855    -0.04100
Br1365     Br  0.91704233  0.76596769  0.02776125     0.00400
Br1366     Br  0.86026446  0.70595598  0.14305849    -0.03400
Br1367     Br  0.87208432  0.79756869  0.14029701    -0.04300
Br1368     Br  0.96128021  0.70738566  0.20196716    -0.00300
C1369       C  0.84229363  0.26518070  0.42790247     0.01100
C1370       C  0.83459859  0.24248990  0.40971993     0.03900
C1371       C  0.85382971  0.23278523  0.38876376    -0.12100
C1372       C  0.88089358  0.24536373  0.38624421     0.23200
C1373       C  0.88894307  0.26716525  0.40504256    -0.12700
C1374       C  0.86973849  0.27724602  0.42558188     0.04600
C1375       C  0.90110253  0.23632378  0.36366240     0.27100
C1376       C  0.92334301  0.21743386  0.37032768    -0.13400
C1377       C  0.94441237  0.21139386  0.34996905     0.05200
C1378       C  0.94275596  0.22321705  0.32228965    -0.09400
C1379       C  0.92063092  0.24237054  0.31576166     0.06000
C1380       C  0.90008533  0.24919316  0.33655085    -0.13700
Br1381     Br  0.92664059  0.28318795  0.40254866    -0.05800
Br1382     Br  0.79735973  0.22554149  0.41236608    -0.00200
Br1383     Br  0.97684394  0.18879752  0.36110232     0.00300
Br1384     Br  0.87107574  0.27706864  0.32850453    -0.04100
Br1385     Br  0.88193069  0.30716242  0.45102347     0.00400
Br1386     Br  0.84317136  0.20249856  0.36322570    -0.03400
Br1387     Br  0.92550905  0.20080801  0.40790432    -0.04300
Br1388     Br  0.91819586  0.25899248  0.27836793    -0.00300
C1389       C  0.16833073  0.26818823  0.42594520     0.01100
C1390       C  0.14044724  0.27952439  0.42516696     0.03900
C1391       C  0.12129869  0.27105486  0.40377596    -0.12100
C1392       C  0.12995133  0.25169216  0.38264024     0.23200
C1393       C  0.15759756  0.24022438  0.38331803    -0.12700
C1394       C  0.17668660  0.24822366  0.40504171     0.04600
C1395       C  0.10918369  0.24207533  0.36086037     0.27100
C1396       C  0.09379457  0.21698412  0.36540619    -0.13400
C1397       C  0.07265966  0.20853999  0.34597746     0.05200
C1398       C  0.06575683  0.22602562  0.32210514    -0.09400
C1399       C  0.08214627  0.25100558  0.31735088     0.06000
C1400       C  0.10410492  0.25845533  0.33635801    -0.13700
Br1401     Br  0.16883121  0.21306150  0.35460944    -0.05800
Br1402     Br  0.12754536  0.30549017  0.45431038    -0.00200
Br1403     Br  0.05510466  0.17190427  0.35245638     0.00300
Br1404     Br  0.12783960  0.29102954  0.32878278    -0.04100
Br1405     Br  0.21434866  0.23216708  0.40547978     0.00400
Br1406     Br  0.08262245  0.28495472  0.40398793    -0.03400
Br1407     Br  0.10217951  0.19403659  0.39856707    -0.04300
Br1408     Br  0.07485129  0.27636621  0.28574537    -0.00300
C1409       C  0.95456151  0.22988405  0.17967429     0.01100
C1410       C  0.92480677  0.22654141  0.17972737     0.03900
C1411       C  0.90872857  0.23325309  0.15512679    -0.12100
C1412       C  0.92232359  0.24303838  0.13007970     0.23200
C1413       C  0.95195525  0.24750960  0.13049882    -0.12700
C1414       C  0.96789177  0.24087315  0.15504612     0.04600
C1415       C  0.90602201  0.24638569  0.10277507     0.27100
C1416       C  0.89648184  0.22210321  0.08790418    -0.13400
C1417       C  0.87987074  0.22495665  0.06296657     0.05200
C1418       C  0.87466168  0.25218982  0.05114256    -0.09400
C1419       C  0.88688982  0.27621270  0.06453882     0.06000
C1420       C  0.90090768  0.27351152  0.09098085    -0.13700
Br1421     Br  0.97120634  0.26151307  0.09694594    -0.05800
Br1422     Br  0.90646904  0.21027030  0.21259964    -0.00200
Br1423     Br  0.86324374  0.19129116  0.04653570     0.00300
Br1424     Br  0.91217785  0.30723668  0.11143354    -0.04100
Br1425     Br  0.00836895  0.24628878  0.15435522     0.00400
Br1426     Br  0.86809352  0.22800721  0.15536557    -0.03400
Br1427     Br  0.90641722  0.18469869  0.10173828    -0.04300
Br1428     Br  0.88609647  0.31286523  0.04590353    -0.00300
C1429       C  0.83908664  0.26598465  0.55210797     0.01100
C1430       C  0.85941794  0.28520927  0.56348529     0.03900
C1431       C  0.87832427  0.27645928  0.58501607    -0.12100
C1432       C  0.87706080  0.24870494  0.59599965     0.23200
C1433       C  0.85658483  0.22960779  0.58540049    -0.12700
C1434       C  0.83786420  0.23802373  0.56334313     0.04600
C1435       C  0.89875394  0.23951681  0.61732618     0.27100
C1436       C  0.92610715  0.23172114  0.60801613    -0.13400
C1437       C  0.94816735  0.22719134  0.62782947     0.05200
C1438       C  0.94285092  0.22937178  0.65747083    -0.09400
C1439       C  0.91483818  0.23566128  0.66674330     0.06000
C1440       C  0.89310092  0.24125281  0.64672659    -0.13700
Br1441     Br  0.85501024  0.19157282  0.60063848    -0.05800
Br1442     Br  0.86185515  0.32411222  0.55055195    -0.00200
Br1443     Br  0.98596269  0.21993957  0.61359087     0.00300
Br1444     Br  0.85553600  0.25186523  0.65940126    -0.04100
Br1445     Br  0.81248482  0.21015601  0.54717957     0.00400
Br1446     Br  0.90687221  0.30239192  0.59919501    -0.03400
Br1447     Br  0.93337178  0.22807586  0.56769687    -0.04300
Br1448     Br  0.90537608  0.23523169  0.70673617    -0.00300
C1449       C  0.06954844  0.22787069  0.66226289     0.01100
C1450       C  0.07349847  0.21040487  0.63794203     0.03900
C1451       C  0.09414105  0.21740823  0.61744925    -0.12100
C1452       C  0.11167260  0.24125816  0.62138212     0.23200
C1453       C  0.10929092  0.25751311  0.64644706    -0.12700
C1454       C  0.08801704  0.25119618  0.66663009     0.04600
C1455       C  0.13171720  0.24995211  0.59849726     0.27100
C1456       C  0.15817426  0.23641967  0.59557105    -0.13400
C1457       C  0.17631718  0.24328911  0.57266491     0.05200
C1458       C  0.16875103  0.26527082  0.55310828    -0.09400
C1459       C  0.14287694  0.28050594  0.55805059     0.03600
C1460       C  0.12406223  0.27183285  0.57967335    -0.13700
Br1461     Br  0.13572788  0.28817453  0.65301359    -0.05800
Br1462     Br  0.05023772  0.17716497  0.63155400    -0.00200
Br1463     Br  0.21139783  0.22197789  0.56957629     0.00300
Br1464     Br  0.08728573  0.28990744  0.58371851    -0.04100
Br1465     Br  0.08538953  0.27394228  0.70066395     0.00400
Br1466     Br  0.09821214  0.19456733  0.58350890    -0.03400
Br1467     Br  0.16950455  0.20859202  0.62364410    -0.04300
Br1468     Br  0.13302124  0.31510036  0.53787112    -0.00300
C1469       C  0.80888424  0.05985300  0.76407305     0.01100
C1470       C  0.80865929  0.08342460  0.74549856     0.03900
C1471       C  0.83412546  0.09807517  0.73967762    -0.12100
C1472       C  0.86008769  0.08793057  0.75076200     0.23200
C1473       C  0.86056545  0.06323709  0.76753551    -0.12700
C1474       C  0.83504947  0.05024467  0.77554703     0.04600
C1475       C  0.88692732  0.10373173  0.74632568     0.27100
C1476       C  0.90123438  0.10227829  0.72008633    -0.13400
C1477       C  0.92678436  0.11729633  0.71615275     0.05200
C1478       C  0.93935101  0.13205692  0.73928537    -0.09400
C1479       C  0.92635701  0.13051823  0.76655086     0.06000
C1480       C  0.89937597  0.11813257  0.76943243    -0.13700
Br1481     Br  0.89652947  0.04673035  0.77884339    -0.05800
Br1482     Br  0.77365470  0.09624363  0.72866321    -0.00200
Br1483     Br  0.94511501  0.11561524  0.67938231     0.00300
Br1484     Br  0.87899189  0.12127454  0.80510503    -0.04100
Br1485     Br  0.83692733  0.01915702  0.80228844     0.00400
Br1486     Br  0.83360492  0.13205919  0.71667483    -0.03400
Br1487     Br  0.88618142  0.07870899  0.68998484    -0.04300
Br1488     Br  0.94468239  0.14470776  0.80070717    -0.00300
C1489       C  0.07325819  0.13833921  0.74426711     0.01100
C1490       C  0.08112254  0.11887314  0.72215844     0.03900
C1491       C  0.10785587  0.10510810  0.72268455    -0.12100
C1492       C  0.12729350  0.11056825  0.74469297     0.23200
C1493       C  0.11986829  0.12948832  0.76662592    -0.12700
C1494       C  0.09286619  0.14255400  0.76709831     0.04600
C1495       C  0.15323737  0.09262323  0.74791702     0.27100
C1496       C  0.15147934  0.06797705  0.76470881    -0.13400
C1497       C  0.17613011  0.05249906  0.77138153     0.05200
C1498       C  0.20289919  0.06098664  0.76048865    -0.09400
C1499       C  0.20439787  0.08468314  0.74218650     0.06000
C1500       C  0.17959260  0.10056259  0.73597797    -0.13700
Br1501     Br  0.14685866  0.13649120  0.79691686    -0.05800
Br1502     Br  0.05578613  0.10876618  0.69125794    -0.00200
Br1503     Br  0.17232572  0.01948794  0.79543964     0.00300
Br1504     Br  0.18154041  0.13304872  0.71114725    -0.04100
Br1505     Br  0.08311175  0.16377457  0.80107148     0.00400
Br1506     Br  0.11788489  0.07744655  0.69387925    -0.03400
Br1507     Br  0.11484155  0.05540719  0.77849446    -0.04300
Br1508     Br  0.24065730  0.09619402  0.72705481    -0.00300
C1509       C  0.93497420  0.24524850  0.78874133     0.01100
C1510       C  0.93526537  0.27366047  0.79881073     0.03900
C1511       C  0.92046824  0.28072363  0.82402506    -0.12100
C1512       C  0.90533166  0.25961858  0.83891402     0.23200
C1513       C  0.90159231  0.23272930  0.82633502    -0.12700
C1514       C  0.91446656  0.22669331  0.80009898     0.04600
C1515       C  0.89151952  0.26607800  0.86661033     0.27100
C1516       C  0.90724186  0.26473495  0.89220487    -0.13400
C1517       C  0.89315452  0.26656784  0.91863806     0.05200
C1518       C  0.86357364  0.27084641  0.91942073    -0.09400
C1519       C  0.84861298  0.27573782  0.89387172     0.06000
C1520       C  0.86224835  0.27225378  0.86750930    -0.13700
Br1521     Br  0.87985689  0.20363748  0.84534127    -0.05800
Br1522     Br  0.95303554  0.30359490  0.77715914    -0.00200
Br1523     Br  0.91392699  0.26178212  0.95372359     0.00300
Br1524     Br  0.84049262  0.27429213  0.83268035    -0.04100
Br1525     Br  0.89922490  0.19692713  0.77665701     0.00400
Br1526     Br  0.92105800  0.31904815  0.83855929    -0.03400
Br1527     Br  0.94779616  0.25914013  0.89101070    -0.04300
Br1528     Br  0.80966353  0.28819246  0.89497660    -0.00300
C1529       C  0.23282138  0.66514177  0.05380171     0.01100
C1530       C  0.24675396  0.63919196  0.04768805     0.03900
C1531       C  0.25133098  0.61898834  0.06950361    -0.12100
C1532       C  0.24233439  0.62464429  0.09762324     0.23200
C1533       C  0.22903016  0.65078280  0.10382427    -0.12700
C1534       C  0.22439169  0.67092460  0.08208595     0.04600
C1535       C  0.24801813  0.60371163  0.12091577     0.27100
C1536       C  0.23017327  0.57993643  0.12489473    -0.13400
C1537       C  0.23654636  0.55958921  0.14612761     0.05200
C1538       C  0.26067997  0.56296305  0.16360363    -0.09400
C1539       C  0.27737293  0.58766059  0.16075973     0.06000
C1540       C  0.27140567  0.60768113  0.13924682    -0.13700
Br1541     Br  0.21725983  0.65903131  0.14231596    -0.05800
Br1542     Br  0.25882764  0.63073115  0.00931545    -0.00200
Br1543     Br  0.21258546  0.52679232  0.15106489     0.00300
Br1544     Br  0.29586222  0.64019945  0.13422014    -0.04100
Br1545     Br  0.20790110  0.70722529  0.09154916     0.00400
Br1546     Br  0.26983653  0.58335114  0.06097500    -0.03400
Br1547     Br  0.19744035  0.57497655  0.10071134    -0.04300
Br1548     Br  0.30793950  0.59462779  0.18697924    -0.00300
C1549       C  0.23872293  0.66724640  0.92799010     0.01100
C1550       C  0.26752401  0.66120122  0.92161281     0.03900
C1551       C  0.27439572  0.64040360  0.90110760    -0.12100
C1552       C  0.25267871  0.62592274  0.88653968     0.23200
C1553       C  0.22408261  0.63259282  0.89191625    -0.12700
C1554       C  0.21701974  0.65282108  0.91277576     0.04600
C1555       C  0.25953770  0.60314201  0.86583172     0.27100
C1556       C  0.26172689  0.60953067  0.83665841    -0.13400
C1557       C  0.26563562  0.58758275  0.81663331     0.05200
C1558       C  0.26759056  0.55899857  0.82584546    -0.09400
C1559       C  0.26509742  0.55276032  0.85524784     0.06000
C1560       C  0.26163349  0.57481955  0.87515395    -0.13700
Br1561     Br  0.19456284  0.61378379  0.87033027    -0.05800
Br1562     Br  0.29788236  0.67986012  0.94193215    -0.00200
Br1563     Br  0.27001836  0.59733004  0.77692808     0.00300
Br1564     Br  0.26022117  0.56644932  0.91542044    -0.04100
Br1565     Br  0.17727984  0.66053458  0.91945643     0.00400
Br1566     Br  0.31354337  0.63119806  0.89304499    -0.03400
Br1567     Br  0.26019507  0.64868036  0.82453016    -0.04300
Br1568     Br  0.26453160  0.51394712  0.86853857    -0.00300
C1569       C  0.07334236  0.78365092  0.79072959     0.01100
C1570       C  0.08796387  0.80374919  0.80784163     0.03900
C1571       C  0.10477779  0.79465101  0.83094419    -0.12100
C1572       C  0.10609140  0.76568435  0.83811059     0.23200
C1573       C  0.09360276  0.74542839  0.81994650    -0.12700
C1574       C  0.07783213  0.75427278  0.79591560     0.04600
C1575       C  0.11892996  0.75704052  0.86580739     0.27100
C1576       C  0.14765493  0.74882474  0.86736410    -0.13400
C1577       C  0.16002572  0.74233465  0.89392309     0.05200
C1578       C  0.14394328  0.74478704  0.91927097    -0.09400
C1579       C  0.11520113  0.75315320  0.91766315     0.06000
C1580       C  0.10268376  0.75898894  0.89099676    -0.13700
Br1581     Br  0.09722858  0.70555679  0.82884843    -0.05800
Br1582     Br  0.08527378  0.84398910  0.80015694    -0.00200
Br1583     Br  0.19967275  0.73202349  0.89546303     0.00300
Br1584     Br  0.06336508  0.77052659  0.88886908    -0.04100
Br1585     Br  0.06097270  0.72567848  0.77174576     0.00400
Br1586     Br  0.12596061  0.82176622  0.85337234    -0.03400
Br1587     Br  0.17041035  0.74818233  0.83318957    -0.04300
Br1588     Br  0.09283236  0.75629902  0.95193375    -0.00300
C1589       C  0.05300193  0.76437465  0.18053559     0.01100
C1590       C  0.04085619  0.75551128  0.15437457     0.03900
C1591       C  0.05806725  0.75016716  0.13053153    -0.12100
C1592       C  0.08754685  0.75429275  0.13225421     0.23200
C1593       C  0.09993869  0.76302789  0.15812654    -0.12700
C1594       C  0.08269609  0.76831414  0.18215855     0.04600
C1595       C  0.10485008  0.75150263  0.10600130     0.27100
C1596       C  0.11544130  0.72477946  0.09773240    -0.13400
C1597       C  0.12922894  0.72151399  0.07132859     0.05200
C1598       C  0.13381993  0.74543324  0.05367338    -0.09400
C1599       C  0.12236023  0.77208880  0.06173297     0.06000
C1600       C  0.10804956  0.77508049  0.08785156    -0.13700
Br1601     Br  0.14040187  0.76901146  0.15996532    -0.05800
Br1602     Br  0.00047529  0.75210904  0.14997571    -0.00200
Br1603     Br  0.14152481  0.68407879  0.05992290     0.00300
Br1604     Br  0.09269121  0.81152814  0.09899811    -0.04100
Br1605     Br  0.09931867  0.78465645  0.21589746     0.00400
Br1606     Br  0.04124844  0.73842603  0.09475715    -0.03400
Br1607     Br  0.11147090  0.69281057  0.12311339    -0.04300
Br1608     Br  0.12438424  0.80427233  0.03622181    -0.00300
C1609       C  0.24968089  0.80744403  0.93727592     0.01100
C1610       C  0.26273497  0.80326527  0.91056286     0.03900
C1611       C  0.26893240  0.82692557  0.89310634    -0.12100
C1612       C  0.26516055  0.85472606  0.90377580     0.23200
C1613       C  0.25528920  0.85869030  0.93175136    -0.12700
C1614       C  0.24565975  0.83538672  0.94755356     0.04600
C1615       C  0.26798175  0.88015953  0.88526610     0.27100
C1616       C  0.29476500  0.89209040  0.87946013    -0.13400
C1617       C  0.29671167  0.91821341  0.86481806     0.05200
C1618       C  0.27171948  0.93391422  0.85842664    -0.09400
C1619       C  0.24496502  0.92239474  0.86604338     0.06000
C1620       C  0.24316023  0.89481885  0.87721661    -0.13700
Br1621     Br  0.25366376  0.89650552  0.94787684    -0.05800
Br1622     Br  0.27096959  0.76534996  0.89749923    -0.00200
Br1623     Br  0.33374932  0.93128972  0.85305327     0.00300
Br1624     Br  0.20643234  0.87710986  0.88214049    -0.04100
Br1625     Br  0.22481397  0.84262101  0.98210219     0.00400
Br1626     Br  0.28035175  0.82139884  0.85407684    -0.03400
Br1627     Br  0.32867677  0.87295176  0.89241639    -0.04300
Br1628     Br  0.21061638  0.94505268  0.86455595    -0.00300
C1629       C  0.24065899  0.33341528  0.92996528     0.01100
C1630       C  0.26125355  0.32575249  0.90948065     0.03900
C1631       C  0.26934446  0.34524480  0.88814181    -0.12100
C1632       C  0.25762592  0.37283406  0.88765321     0.23200
C1633       C  0.23793140  0.38092369  0.90877949    -0.12700
C1634       C  0.22899629  0.36115606  0.92946261     0.04600
C1635       C  0.26607262  0.39354898  0.86515950     0.27100
C1636       C  0.28709180  0.41403388  0.87092096    -0.13400
C1637       C  0.29368500  0.43494006  0.85052622     0.05200
C1638       C  0.27927931  0.43549109  0.82405028    -0.09400
C1639       C  0.25883869  0.41446251  0.81796720     0.06000
C1640       C  0.25244264  0.39342131  0.83837315    -0.13700
Br1641     Br  0.22371436  0.41945614  0.90969579    -0.05800
Br1642     Br  0.27765541  0.28818829  0.90983926    -0.00200
Br1643     Br  0.32159595  0.46358383  0.85982942     0.00300
Br1644     Br  0.22537083  0.36401714  0.82949496    -0.04100
Br1645     Br  0.20137109  0.37267918  0.95763973     0.00400
Br1646     Br  0.29644863  0.33425034  0.85937291    -0.03400
Br1647     Br  0.30688177  0.41335581  0.90693403    -0.04300
Br1648     Br  0.24040898  0.41376734  0.78124171    -0.00300
C1649       C  0.26608325  0.43724813  0.15673497     0.01100
C1650       C  0.27458109  0.43779589  0.12789828     0.03900
C1651       C  0.26780013  0.41506503  0.10976335    -0.12100
C1652       C  0.25240069  0.39172433  0.12025649     0.23200
C1653       C  0.24271516  0.39158376  0.14858218    -0.12700
C1654       C  0.24953497  0.41430743  0.16685989     0.04600
C1655       C  0.24565164  0.36794881  0.10081823     0.27100
C1656       C  0.21995951  0.36826313  0.08571730    -0.13400
C1657       C  0.21481700  0.34785512  0.06459230     0.05200
C1658       C  0.23641349  0.32806369  0.05686590    -0.09400
C1659       C  0.26190674  0.32727175  0.07297630     0.06000
C1660       C  0.26599569  0.34667739  0.09545451    -0.13700
Br1661     Br  0.22017936  0.36008029  0.16206153    -0.05800
Br1662     Br  0.29442859  0.47027692  0.11268479    -0.00200
Br1663     Br  0.17740441  0.34754531  0.04744963     0.00300
Br1664     Br  0.29986886  0.34498397  0.11862128    -0.04100
Br1665     Br  0.23717020  0.41297613  0.20591604     0.00400
Br1666     Br  0.27919732  0.41585569  0.07023453    -0.03400
Br1667     Br  0.19225779  0.39773526  0.09321726    -0.04300
Br1668     Br  0.29258799  0.30170262  0.06343846    -0.00300
C1669       C  0.07217624  0.22198464  0.18927995     0.01100
C1670       C  0.07436276  0.25122467  0.18190706     0.03900
C1671       C  0.08757281  0.25930676  0.15626773    -0.12100
C1672       C  0.10136761  0.23892035  0.13931314     0.23200
C1673       C  0.10272212  0.21050019  0.14847742    -0.12700
C1674       C  0.08864615  0.20200837  0.17354211     0.04600
C1675       C  0.11496424  0.24733398  0.11201735     0.27100
C1676       C  0.09924227  0.24675497  0.08647262    -0.13400
C1677       C  0.11254873  0.25309638  0.06034320     0.05200
C1678       C  0.14176720  0.25978214  0.05960458    -0.09400
C1679       C  0.15740929  0.26049783  0.08534607     0.06000
C1680       C  0.14393444  0.25467799  0.11145887    -0.13700
Br1681     Br  0.12258929  0.18282243  0.12545413    -0.05800
Br1682     Br  0.06028877  0.28103214  0.20659013    -0.00200
Br1683     Br  0.09056648  0.25308146  0.02567708     0.00300
Br1684     Br  0.16525967  0.25598162  0.14659265    -0.04100
Br1685     Br  0.09355526  0.16307876  0.18593820     0.00400
Br1686     Br  0.08480180  0.29804893  0.14305606    -0.03400
Br1687     Br  0.05952430  0.23673659  0.08745412    -0.04300
Br1688     Br  0.19790209  0.26687389  0.08495837    -0.00300
C1689       C  0.05652639  0.25305019  0.79699181     0.01100
C1690       C  0.04549198  0.26559967  0.82201195     0.03900
C1691       C  0.06303943  0.27000041  0.84576362    -0.12100
C1692       C  0.09179631  0.26197630  0.84470135     0.23200
C1693       C  0.10343214  0.25122054  0.81921217    -0.12700
C1694       C  0.08580712  0.24676158  0.79532888     0.04600
C1695       C  0.10860772  0.26210444  0.87139591     0.27100
C1696       C  0.12053285  0.28752623  0.88159426    -0.13400
C1697       C  0.13390317  0.28813906  0.90843028     0.05200
C1698       C  0.13674389  0.26278231  0.92451654    -0.09400
C1699       C  0.12373545  0.23762323  0.91459885     0.06000
C1700       C  0.10974051  0.23733270  0.88817236    -0.13700
Br1701     Br  0.14300650  0.24059861  0.81792025    -0.05800
Br1702     Br  0.00586010  0.27542920  0.82463312    -0.00200
Br1703     Br  0.14750468  0.32407841  0.92264130     0.00300
Br1704     Br  0.09132737  0.20308833  0.87517063    -0.04100
Br1705     Br  0.10117621  0.22903533  0.76165947     0.00400
Br1706     Br  0.04719626  0.28478935  0.88077618    -0.03400
Br1707     Br  0.11834019  0.32147301  0.85855260    -0.04300
Br1708     Br  0.12285371  0.20398412  0.93821764    -0.00300
C1709       C  0.28239927  0.06882176  0.86007517     0.01100
C1710       C  0.28833443  0.09526995  0.84695078     0.03900
C1711       C  0.28605097  0.12067900  0.86261855    -0.12100
C1712       C  0.27692594  0.12003743  0.89114169     0.23200
C1713       C  0.27261174  0.09365952  0.90476294    -0.12700
C1714       C  0.27563645  0.06811389  0.88932838     0.04600
C1715       C  0.26912610  0.14708309  0.90563403     0.27100
C1716       C  0.28717175  0.15941588  0.92619411    -0.13400
C1717       C  0.27849567  0.18413104  0.94085760     0.05200
C1718       C  0.25228032  0.19716434  0.93413231    -0.09400
C1719       C  0.23535653  0.18597228  0.91215197     0.06000
C1720       C  0.24335151  0.16068477  0.89841817    -0.13700
Br1721     Br  0.26197470  0.09254755  0.94442299    -0.05800
Br1722     Br  0.29742690  0.09747440  0.80693563    -0.00200
Br1723     Br  0.30157068  0.19888343  0.97141726     0.00300
Br1724     Br  0.21821059  0.14401721  0.87056084    -0.04100
Br1725     Br  0.27151673  0.03209643  0.90848804     0.00400
Br1726     Br  0.29453647  0.15677953  0.84493625    -0.03400
Br1727     Br  0.32335711  0.14199384  0.93464744    -0.04300
Br1728     Br  0.20099001  0.20545351  0.90101666    -0.00300
C1729       C  0.66328284  0.93929114  0.22835324     0.01100
C1730       C  0.66095019  0.92993977  0.25690376     0.03900
C1731       C  0.64173406  0.90818561  0.26399111    -0.12100
C1732       C  0.62459766  0.89587479  0.24278840     0.23200
C1733       C  0.62638958  0.90535110  0.21450601    -0.12700
C1734       C  0.64507178  0.92743501  0.20730473     0.04600
C1735       C  0.60341759  0.87399476  0.25039781     0.27100
C1736       C  0.61066340  0.84496993  0.24914278    -0.13400
C1737       C  0.59024719  0.82427057  0.25588235     0.05200
C1738       C  0.56252949  0.83261795  0.26345537    -0.09400
C1739       C  0.55540594  0.86166058  0.26511487     0.06000
C1740       C  0.57583451  0.88235000  0.25851911    -0.13700
Br1741     Br  0.60323355  0.88758387  0.18552953    -0.05800
Br1742     Br  0.68178561  0.94854459  0.28704325    -0.00200
Br1743     Br  0.60051520  0.78457865  0.25621349     0.00300
Br1744     Br  0.56634794  0.92220633  0.26104590    -0.04100
Br1745     Br  0.64466734  0.94084957  0.16833028     0.00400
Br1746     Br  0.63850179  0.89516933  0.30282991    -0.03400
Br1747     Br  0.64868578  0.83379326  0.23864991    -0.04300
Br1748     Br  0.51789504  0.87309168  0.27720892    -0.00300
C1749       C  0.66808004  0.06082931  0.22117734     0.01100
C1750       C  0.67614529  0.08407326  0.23825580     0.03900
C1751       C  0.65613687  0.10534094  0.24527227    -0.12100
C1752       C  0.62767008  0.10301633  0.23606806     0.23200
C1753       C  0.61938762  0.07934059  0.21969171    -0.12700
C1754       C  0.63956153  0.05855524  0.21189263     0.04600
C1755       C  0.60617662  0.12493110  0.24434349     0.27100
C1756       C  0.59215383  0.12285249  0.27065277    -0.13400
C1757       C  0.57180475  0.14339128  0.27875747     0.05200
C1758       C  0.56439313  0.16612496  0.25995155    -0.09400
C1759       C  0.57853780  0.16773569  0.23322971     0.06000
C1760       C  0.59932842  0.14733670  0.22569717    -0.13700
Br1761     Br  0.58008142  0.07515263  0.20864291    -0.05800
Br1762     Br  0.71478939  0.08697007  0.25155731    -0.00200
Br1763     Br  0.55580286  0.13998173  0.31661241     0.00300
Br1764     Br  0.61826535  0.14943725  0.18929544    -0.04100
Br1765     Br  0.62758519  0.02633004  0.18947641     0.00400
Br1766     Br  0.66765808  0.13780360  0.26743725    -0.03400
Br1767     Br  0.60067526  0.09104359  0.29535049    -0.04300
Br1768     Br  0.56918550  0.19677931  0.20567110    -0.00300
C1769       C  0.77164110  0.18053256  0.04048931     0.01100
C1770       C  0.77671517  0.18072537  0.07003430     0.03900
C1771       C  0.77075187  0.15635662  0.08622954    -0.12100
C1772       C  0.75994739  0.13193336  0.07272307     0.23200
C1773       C  0.75518773  0.13163966  0.04323103    -0.12700
C1774       C  0.76173203  0.15566016  0.02704065     0.04600
C1775       C  0.75540253  0.10567040  0.08895398     0.27100
C1776       C  0.77791899  0.08629481  0.09208462    -0.13400
C1777       C  0.77365975  0.06091702  0.10706426     0.05200
C1778       C  0.74662185  0.05472887  0.11868595    -0.09400
C1779       C  0.72346954  0.07328011  0.11331033     0.06000
C1780       C  0.72814278  0.09907222  0.09906298    -0.13700
Br1781     Br  0.74070480  0.09776903  0.02496638    -0.05800
Br1782     Br  0.79308120  0.21380610  0.08790811    -0.00200
Br1783     Br  0.80476382  0.03414718  0.11005132     0.00300
Br1784     Br  0.69740811  0.12578255  0.09338282    -0.04100
Br1785     Br  0.76061505  0.15269888  0.98627946     0.00400
Br1786     Br  0.77785959  0.15599153  0.12667740    -0.03400
Br1787     Br  0.81449252  0.09455708  0.07532764    -0.04300
Br1788     Br  0.68526538  0.06426597  0.12519726    -0.00300
C1789       C  0.76080896  0.79189217  0.05814785     0.01100
C1790       C  0.73298932  0.80332745  0.05543556     0.03900
C1791       C  0.72552123  0.82826429  0.07036912    -0.12100
C1792       C  0.74512058  0.84110827  0.08894264     0.23200
C1793       C  0.77069242  0.82691232  0.09545766    -0.12700
C1794       C  0.77803000  0.80181367  0.08083217     0.04600
C1795       C  0.73879817  0.86932627  0.10183681     0.27100
C1796       C  0.74416596  0.89444889  0.08637691    -0.13400
C1797       C  0.74021228  0.92120818  0.09931160     0.05200
C1798       C  0.73149128  0.92296966  0.12802962    -0.09400
C1799       C  0.72517992  0.89771373  0.14310737     0.06000
C1800       C  0.72796540  0.87109960  0.12969275    -0.13700
Br1801     Br  0.79617831  0.84244408  0.12368829    -0.05800
Br1802     Br  0.70422241  0.78481165  0.03276107    -0.00200
Br1803     Br  0.74571638  0.95539508  0.07728180     0.00300
Br1804     Br  0.71639914  0.83690191  0.14912176    -0.04100
Br1805     Br  0.81030867  0.77988728  0.09375816     0.00400
Br1806     Br  0.68871475  0.84558462  0.06497945    -0.03400
Br1807     Br  0.75657666  0.89209205  0.04728626    -0.04300
Br1808     Br  0.71508525  0.89892520  0.18292281    -0.00300
C1809       C  0.93456354  0.86889149  0.26532764     0.01100
C1810       C  0.90981082  0.85301757  0.27157362     0.03900
C1811       C  0.88272338  0.86483408  0.26681263    -0.12100
C1812       C  0.88009195  0.89323854  0.25787523     0.23200
C1813       C  0.90465126  0.91004021  0.25449510    -0.12700
C1814       C  0.93183836  0.89773800  0.25752839     0.04600
C1815       C  0.85201170  0.90442431  0.24854015     0.27100
C1816       C  0.84577905  0.90532185  0.21929751    -0.13400
C1817       C  0.82075461  0.91849356  0.20952022     0.05200
C1818       C  0.80116892  0.93062480  0.22935413    -0.09400
C1819       C  0.80590840  0.92600947  0.25887517     0.06000
C1820       C  0.83168437  0.91388466  0.26836542    -0.13700
Br1821     Br  0.90075059  0.94963438  0.24440220    -0.05800
Br1822     Br  0.91243993  0.81437535  0.28489460    -0.00200
Br1823     Br  0.81516268  0.91966069  0.16858223     0.00300
Br1824     Br  0.83970927  0.91096086  0.30856660    -0.04100
Br1825     Br  0.96526569  0.92050961  0.25125735     0.00400
Br1826     Br  0.84921340  0.84140797  0.27002092    -0.03400
Br1827     Br  0.87233264  0.88882017  0.19247966    -0.04300
Br1828     Br  0.77698957  0.93490662  0.28671627    -0.00300
C1829       C  0.93822157  0.12078431  0.25002240     0.01100
C1830       C  0.91866798  0.12173320  0.27303235     0.03900
C1831       C  0.89175055  0.10887480  0.27048142    -0.12100
C1832       C  0.88452192  0.09401192  0.24555436     0.23200
C1833       C  0.90461154  0.09120036  0.22351971    -0.12700
C1834       C  0.93107058  0.10498507  0.22541704     0.04600
C1835       C  0.85686889  0.07895460  0.24339379     0.27100
C1836       C  0.85466344  0.05106453  0.25386633    -0.13400
C1837       C  0.82977921  0.03529170  0.24908876     0.05200
C1838       C  0.80738098  0.04681070  0.23268238    -0.09400
C1839       C  0.80933001  0.07503370  0.22276864     0.06000
C1840       C  0.83365213  0.09141391  0.22899887    -0.13700
Br1841     Br  0.89627937  0.06703846  0.19137174    -0.05800
Br1842     Br  0.92771338  0.14043506  0.30832295    -0.00200
Br1843     Br  0.82687381  0.99757745  0.26458901     0.00300
Br1844     Br  0.83559358  0.13065666  0.21736115    -0.04100
Br1845     Br  0.95804754  0.10071125  0.19470443     0.00400
Br1846     Br  0.86470326  0.11093056  0.30137445    -0.03400
Br1847     Br  0.88660334  0.03405892  0.27340183    -0.04300
Br1848     Br  0.78013470  0.09017557  0.19820553    -0.00300
C1849       C  0.34274742  0.93826277  0.23315158     0.01100
C1850       C  0.37196096  0.94371351  0.23797165     0.03900
C1851       C  0.39058908  0.92130629  0.24515551    -0.12100
C1852       C  0.38070565  0.89306522  0.24564796     0.23200
C1853       C  0.35141716  0.88774631  0.24229721    -0.12700
C1854       C  0.33231941  0.91041899  0.23780565     0.04600
C1855       C  0.40090110  0.86912191  0.25085484     0.27100
C1856       C  0.42042973  0.86062128  0.22962500    -0.13400
C1857       C  0.44056630  0.83906531  0.23540806     0.05200
C1858       C  0.43982576  0.82436840  0.26159088    -0.09400
C1859       C  0.41887782  0.83158322  0.28182447     0.06000
C1860       C  0.40076053  0.85492790  0.27724854    -0.13700
Br1861     Br  0.33748442  0.84915869  0.24296369    -0.05800
Br1862     Br  0.38641810  0.98209195  0.23687852    -0.00200
Br1863     Br  0.47031331  0.83110682  0.20832702     0.00300
Br1864     Br  0.37724229  0.86880283  0.30796270    -0.04100
Br1865     Br  0.29205446  0.90262398  0.23834442     0.00400
Br1866     Br  0.42955112  0.92919858  0.25535197    -0.03400
Br1867     Br  0.42010484  0.87915690  0.19296695    -0.04300
Br1868     Br  0.41372329  0.80855978  0.31520419    -0.00300
C1869       C  0.44001951  0.17048894  0.26468594     0.01100
C1870       C  0.44034910  0.14268529  0.27597856     0.03900
C1871       C  0.41856419  0.12352445  0.26918754    -0.12100
C1872       C  0.39610389  0.13203999  0.25134353     0.23200
C1873       C  0.39510930  0.16005056  0.24077527    -0.12700
C1874       C  0.41755091  0.17900363  0.24663129     0.04600
C1875       C  0.37600347  0.11019952  0.24083479     0.27100
C1876       C  0.38378938  0.09367917  0.21712822    -0.13400
C1877       C  0.36705428  0.07040430  0.20884881     0.05200
C1878       C  0.34167848  0.06394305  0.22378917    -0.09400
C1879       C  0.33374921  0.08095156  0.24738059     0.06000
C1880       C  0.35107359  0.10379183  0.25602509    -0.13700
Br1881     Br  0.36273694  0.17232347  0.21873194    -0.05800
Br1882     Br  0.47186729  0.12987793  0.29901384    -0.00200
Br1883     Br  0.38073473  0.04641650  0.17829214     0.00300
Br1884     Br  0.34123612  0.12600050  0.28914178    -0.04100
Br1885     Br  0.41768282  0.21614386  0.22933373     0.00400
Br1886     Br  0.41971880  0.08511731  0.28365449    -0.03400
Br1887     Br  0.41837028  0.10245339  0.19673087    -0.04300
Br1888     Br  0.29888068  0.07393748  0.26765507    -0.00300
C1889       C  0.28491170  0.92812636  0.12099858     0.01100
C1890       C  0.26989865  0.92609435  0.09485723     0.03900
C1891       C  0.26587755  0.89944363  0.08174104    -0.12100
C1892       C  0.27601325  0.87448119  0.09484627     0.23200
C1893       C  0.29265611  0.87644969  0.11960087    -0.12700
C1894       C  0.29777673  0.90312021  0.13225541     0.04600
C1895       C  0.26993635  0.84631238  0.08180273     0.27100
C1896       C  0.24669919  0.82995619  0.09133579    -0.13400
C1897       C  0.23844477  0.80548377  0.07613503     0.05200
C1898       C  0.25361505  0.79710729  0.05161793    -0.09400
C1899       C  0.27798516  0.81236837  0.04337408     0.06000
C1900       C  0.28609146  0.83692083  0.05837120    -0.13700
Br1901     Br  0.30866761  0.84230202  0.13594542    -0.05800
Br1902     Br  0.25619072  0.95965419  0.07551029    -0.00200
Br1903     Br  0.20538595  0.78439835  0.08791154     0.00300
Br1904     Br  0.31795201  0.85916032  0.04542577    -0.04100
Br1905     Br  0.32281918  0.90420734  0.16480254     0.00400
Br1906     Br  0.24713551  0.89698347  0.04517316    -0.03400
Br1907     Br  0.22507374  0.84212302  0.12407719    -0.04300
Br1908     Br  0.29870993  0.80121727  0.00977676    -0.00300
C1909       C  0.28055616  0.06501553  0.12115989     0.01100
C1910       C  0.27414799  0.09046827  0.13586718     0.03900
C1911       C  0.27001445  0.11581344  0.12070174    -0.12100
C1912       C  0.27305752  0.11601434  0.09093948     0.23200
C1913       C  0.28221786  0.09138295  0.07653024    -0.12700
C1914       C  0.28591325  0.06579027  0.09163842     0.04600
C1915       C  0.26300805  0.14102292  0.07475018     0.27100
C1916       C  0.23448269  0.14214180  0.06602910    -0.13400
C1917       C  0.22426059  0.16578666  0.05086960     0.05200
C1918       C  0.24207205  0.18981167  0.04645356    -0.09400
C1919       C  0.27051037  0.18887751  0.05662688     0.06000
C1920       C  0.28114026  0.16408126  0.06960372    -0.13700
Br1921     Br  0.28794333  0.09254105  0.03587886    -0.05800
Br1922     Br  0.27114868  0.09093985  0.17690229    -0.00200
Br1923     Br  0.18650669  0.16304588  0.03468434     0.00300
Br1924     Br  0.32067494  0.16129214  0.08024203    -0.04100
Br1925     Br  0.29611590  0.03157940  0.07151745     0.00400
Br1926     Br  0.25820822  0.14996875  0.14030698    -0.03400
Br1927     Br  0.20939487  0.11089296  0.07518789    -0.04300
Br1928     Br  0.29514599  0.22158997  0.05452059    -0.00300
C1929       C  0.07070841  0.87147459  0.24198255     0.01100
C1930       C  0.07806039  0.88284444  0.21499320     0.03900
C1931       C  0.10520553  0.89458663  0.21034506    -0.12100
C1932       C  0.12529736  0.89537530  0.23251482     0.23200
C1933       C  0.11817267  0.88451406  0.25947019    -0.12700
C1934       C  0.09089180  0.87318944  0.26446591     0.04600
C1935       C  0.15273324  0.91051433  0.22840350     0.27100
C1936       C  0.17596484  0.89720886  0.21491129    -0.13400
C1937       C  0.20112553  0.91263395  0.20953481     0.05200
C1938       C  0.20384667  0.94097722  0.21928827    -0.09400
C1939       C  0.18076619  0.95362803  0.23396052     0.06000
C1940       C  0.15511318  0.93884062  0.23752777    -0.13700
Br1941     Br  0.14640292  0.88486025  0.28942378    -0.05800
Br1942     Br  0.05048283  0.88448112  0.18455423    -0.00200
Br1943     Br  0.23156490  0.89481852  0.18852099     0.00300
Br1944     Br  0.12229919  0.95802802  0.25331370    -0.04100
Br1945     Br  0.08225823  0.86031806  0.30244021     0.00400
Br1946     Br  0.11508614  0.90994921  0.17353142    -0.03400
Br1947     Br  0.17285486  0.85802596  0.20331904    -0.04300
Br1948     Br  0.18265357  0.99195810  0.24780479    -0.00300
C1949       C  0.20756730  0.05669477  0.22328776     0.01100
C1950       C  0.18908253  0.06890620  0.20289356     0.03900
C1951       C  0.16375684  0.08228599  0.21149840    -0.12100
C1952       C  0.15650087  0.08377073  0.24056207     0.23200
C1953       C  0.17569002  0.07327292  0.26113654    -0.12700
C1954       C  0.20155426  0.06053597  0.25262854     0.04600
C1955       C  0.12868376  0.09653943  0.24908975     0.27100
C1956       C  0.12742170  0.12482996  0.25876141    -0.13400
C1957       C  0.10091068  0.13801090  0.26368478     0.05200
C1958       C  0.07523253  0.12313847  0.25838580    -0.09400
C1959       C  0.07667263  0.09447877  0.24946139     0.06000
C1960       C  0.10326183  0.08114748  0.24532701    -0.13700
Br1961     Br  0.16543303  0.07443159  0.30090391    -0.05800
Br1962     Br  0.19840271  0.06793686  0.16284097    -0.00200
Br1963     Br  0.10043379  0.17730128  0.27540342     0.00300
Br1964     Br  0.10507634  0.04173570  0.23409273    -0.04100
Br1965     Br  0.22718224  0.04644040  0.28153129     0.00400
Br1966     Br  0.13826723  0.09758878  0.18316104    -0.03400
Br1967     Br  0.16225150  0.14591546  0.26394746    -0.04300
Br1968     Br  0.04226717  0.07317433  0.24307587    -0.00300
loop_ 
_geom_bond_atom_site_label_1 
_geom_bond_atom_site_label_2 
_geom_bond_distance 
_geom_bond_site_symmetry_2 
_ccdc_geom_bond_type 
O1          Cr19   2.016       .  S
O1            C9   1.268       .  A
O2          Cr19   1.968       .  S
O2            C3   1.259       .  A
C3            O4   1.273       .  A
C3         C1938   1.491       .  S
O4          Cr20   2.032       .  S
O5          Cr20   1.979       .  S
O5            C6   1.262       .  A
C6            O7   1.269       .  A
C6         C1849   1.494       .  S
O7          Cr21   2.016       .  S
O8          Cr21   1.971       .  S
O8            C9   1.258       .  A
C9         C1889   1.500       .  S
O10         Cr19   1.962   1_545  S
O10          C18   1.255       .  A
O11         Cr19   2.005   1_545  S
O11          C12   1.266       .  A
C12          O13   1.261       .  A
C12        C1949   1.492       .  S
O13         Cr20   1.993   1_545  S
O14         Cr20   2.026   1_545  S
O14          C15   1.269       .  A
C15          O16   1.255       .  A
C15        C1878   1.488       .  S
O16         Cr21   1.963   1_545  S
O17         Cr21   2.011   1_545  S
O17          C18   1.264       .  A
C18        C1909   1.475       .  S
Cr19         O22   1.767       .  S
Cr20         O22   1.772       .  S
Cr21         O22   1.773       .  S
O23         Cr41   1.958   1_545  S
O23          C31   1.258       .  A
O24         Cr41   2.006   1_545  S
O24          C25   1.264       .  A
C25          O26   1.265       .  A
C25        C1838   1.481       .  S
O26         Cr42   1.999   1_545  S
O27         Cr42   2.034   1_545  S
O27          C28   1.274       .  A
C28          O29   1.261       .  A
C28        C1749   1.485       .  S
O29         Cr43   1.971   1_545  S
O30         Cr43   2.013   1_545  S
O30          C31   1.266       .  A
C31        C1778   1.476       .  S
O32         Cr41   2.008       .  S
O32          C40   1.263       .  A
O33         Cr41   1.961       .  S
O33          C34   1.252       .  A
C34          O35   1.271       .  A
C34        C1818   1.501       .  S
O35         Cr42   2.035       .  S
O36         Cr42   1.991       .  S
O36          C37   1.263       .  A
C37          O38   1.259       .  A
C37        C1729   1.485       .  S
O38         Cr43   1.992       .  S
O39         Cr43   1.982       .  S
O39          C40   1.258       .  A
C40        C1798   1.484       .  S
Cr41         O44   1.758       .  S
Cr42         O44   1.765       .  S
Cr43         O44   1.767       .  S
O45         Cr63   1.971       .  S
O45          C53   1.259       .  A
O46         Cr63   1.997       .  S
O46          C47   1.265       .  A
C47          O48   1.265       .  A
C47        C1718   1.474       .  S
O48         Cr64   1.987       .  S
O49         Cr64   2.036       .  S
O49          C50   1.275       .  A
C50          O51   1.262       .  A
C50        C1629   1.487       .  S
O51         Cr65   1.972       .  S
O52         Cr65   2.010       .  S
O52          C53   1.263       .  A
C53        C1698   1.484       .  S
O54         Cr63   2.010   1_554  S
O54          C62   1.264       .  A
O55         Cr63   1.973   1_554  S
O55          C56   1.257       .  A
C56          O57   1.265       .  A
C56        C1918   1.492       .  S
O57         Cr64   2.011   1_554  S
O58         Cr64   1.998   1_554  S
O58          C59   1.261       .  A
C59          O60   1.256       .  A
C59        C1658   1.490       .  S
O60         Cr65   1.989   1_554  S
O61         Cr65   1.985   1_554  S
O61          C62   1.259       .  A
C62        C1678   1.484       .  S
Cr63         O66   1.760       .  S
Cr64         O66   1.768       .  S
Cr65         O66   1.768       .  S
O67         Cr85   1.960   1_554  S
O67          C75   1.253       .  A
O68         Cr85   1.990   1_554  S
O68          C69   1.262       .  A
C69          O70   1.263       .  A
C69        C1898   1.475       .  S
O70         Cr86   1.995   1_554  S
O71         Cr86   2.032   1_554  S
O71          C72   1.272       .  A
C72          O73   1.262       .  A
C72        C1529   1.490       .  S
O73         Cr87   1.976   1_554  S
O74         Cr87   2.021   1_554  S
O74          C75   1.265       .  A
C75        C1598   1.484       .  S
O76         Cr85   2.013       .  S
O76          C84   1.266       .  A
O77         Cr85   1.967       .  S
O77          C78   1.256       .  A
C78          O79   1.269       .  A
C78        C1609   1.480       .  S
O79         Cr86   2.029       .  S
O80         Cr86   1.992       .  S
O80          C81   1.263       .  A
C81          O82   1.263       .  A
C81        C1549   1.489       .  S
O82         Cr87   2.003       .  S
O83         Cr87   1.978       .  S
O83          C84   1.258       .  A
C84        C1578   1.484       .  S
Cr85         O88   1.769       .  S
Cr86         O88   1.776       .  S
Cr87         O88   1.772       .  S
O89        Cr107   1.987       .  S
O89          C97   1.262       .  A
O90        Cr107   1.985       .  S
O90          C91   1.258       .  A
C91          O92   1.263       .  A
C91        C1689   1.478       .  S
O92        Cr108   2.003       .  S
O93        Cr108   2.028       .  S
O93          C94   1.272       .  A
C94          O95   1.259       .  A
C94        C1449   1.490       .  S
O95        Cr109   1.970       .  S
O96        Cr109   2.015       .  S
O96          C97   1.266       .  A
C97        C1489   1.514       .  S
O98        Cr107   2.004   1_655  S
O98         C106   1.259       .  A
O99        Cr107   1.984   1_655  S
O99         C100   1.268       .  A
C100        O101   1.271       .  A
C100       C1509   1.500       .  S
O101       Cr108   2.023   1_655  S
O102       Cr108   1.992   1_655  S
O102        C103   1.262       .  A
C103        O104   1.264       .  A
C103       C1438   1.497       .  S
O104       Cr109   2.001   1_655  S
O105       Cr109   1.982   1_655  S
O105        C106   1.258       .  A
C106       C1478   1.489       .  S
Cr107       O110   1.762       .  S
Cr108       O110   1.770       .  S
Cr109       O110   1.764       .  S
O111       Cr129   1.976   1_655  S
O111        C119   1.261       .  A
O112       Cr129   2.006   1_655  S
O112        C113   1.265       .  A
C113        O114   1.268       .  A
C113       C1409   1.491       .  S
O114       Cr130   2.006   1_655  S
O115       Cr130   2.036   1_655  S
O115        C116   1.272       .  A
C116        O117   1.256       .  A
C116       C1378   1.484       .  S
O117       Cr131   1.956   1_655  S
O118       Cr131   2.022   1_655  S
O118        C119   1.269       .  A
C119       C1829   1.491       .  S
O120       Cr129   2.013       .  S
O120        C128   1.266       .  A
O121       Cr129   1.972       .  S
O121        C122   1.258       .  A
C122        O123   1.267       .  A
C122       C1669   1.503       .  S
O123       Cr130   2.013       .  S
O124       Cr130   1.987       .  S
O124        C125   1.258       .  A
C125        O126   1.260       .  A
C125       C1398   1.501       .  S
O126       Cr131   2.000       .  S
O127       Cr131   1.987       .  S
O127        C128   1.258       .  A
C128       C1958   1.495       .  S
Cr129       O132   1.763       .  S
Cr130       O132   1.766       .  S
Cr131       O132   1.770       .  S
O133       Cr151   1.980   1_455  S
O133        C141   1.259       .  A
O134       Cr151   1.993   1_455  S
O134        C135   1.262       .  A
C135        O136   1.270       .  A
C135       C1589   1.488       .  S
O136       Cr152   2.010       .  S
O137       Cr152   2.032       .  S
O137        C138   1.270       .  A
C138        O139   1.257       .  A
C138       C1309   1.486       .  S
O139       Cr153   1.967       .  S
O140       Cr153   2.020       .  S
O140        C141   1.267       .  A
C141       C1929   1.499       .  S
O142       Cr151   2.015       .  S
O142        C150   1.266       .  A
O143       Cr151   1.988       .  S
O143        C144   1.264       .  A
C144        O145   1.265       .  A
C144       C1358   1.507       .  S
O145       Cr152   2.008   1_655  S
O146       Cr152   2.004   1_655  S
O146        C147   1.266       .  A
C147        O148   1.261       .  A
C147       C1329   1.508       .  S
O148       Cr153   2.006   1_655  S
O149       Cr153   1.980   1_655  S
O149        C150   1.258       .  A
C150       C1809   1.486       .  S
Cr151       O154   1.770   1_655  S
Cr152       O154   1.768       .  S
Cr153       O154   1.772       .  S
O155       Cr173   1.973       .  S
O155        C163   1.259       .  A
O156       Cr173   1.994       .  S
O156        C157   1.262       .  A
C157        O158   1.262       .  A
C157       C1289   1.476       .  S
O158       Cr174   1.984       .  S
O159       Cr174   2.023       .  S
O159        C160   1.266       .  A
C160        O161   1.250       .  A
C160       C1238   1.483       .  S
O161       Cr175   1.953       .  S
O162       Cr175   2.028       .  S
O162        C163   1.271       .  A
C163       C1269   1.488       .  S
O164       Cr173   2.012   1_554  S
O164        C172   1.265       .  A
O165       Cr173   1.972   1_554  S
O165        C166   1.261       .  A
C166        O167   1.270       .  A
C166       C1789   1.502       .  S
O167       Cr174   2.026   1_554  S
O168       Cr174   1.956   1_554  S
O168        C169   1.258       .  A
C169        O170   1.271       .  A
C169       C1249   1.488       .  S
O170       Cr175   2.020   1_554  S
O171       Cr175   1.972   1_554  S
O171        C172   1.255       .  A
C172       C1349   1.494       .  S
Cr173       O176   1.768       .  S
Cr174       O176   1.777       .  S
Cr175       O176   1.768       .  S
O177       Cr195   2.026       .  S
O177        C185   1.272       .  A
O178       Cr195   1.962       .  S
O178        C179   1.256       .  A
C179        O180   1.271       .  A
C179       C1498   1.486       .  S
O180       Cr196   2.035       .  S
O181       Cr196   2.000       .  S
O181        C182   1.265       .  A
C182        O183   1.260       .  A
C182       C1169   1.494       .  S
O183       Cr197   1.999   1_545  S
O184       Cr197   1.969   1_545  S
O184        C185   1.257       .  A
C185       C1709   1.486       .  S
O186       Cr195   1.960   1_565  S
O186        C194   1.251       .  A
O187       Cr195   1.996   1_565  S
O187        C188   1.262       .  A
C188        O189   1.263       .  A
C188       C1218   1.476       .  S
O189       Cr196   1.991   1_565  S
O190       Cr196   2.040   1_565  S
O190        C191   1.276       .  A
C191        O192   1.259       .  A
C191       C1189   1.477       .  S
O192       Cr197   1.962       .  S
O193       Cr197   2.020       .  S
O193        C194   1.263       .  A
C194       C1618   1.490       .  S
Cr195       O198   1.761       .  S
Cr196       O198   1.772       .  S
Cr197       O198   1.771   1_565  S
O199       Cr217   2.011   1_655  S
O199        C207   1.261       .  A
O200       Cr217   1.969   1_655  S
O200        C201   1.260       .  A
C201        O202   1.270       .  A
C201       C1278   1.480       .  S
O202       Cr218   2.015   1_655  S
O203       Cr218   2.002   1_655  S
O203        C204   1.264       .  A
C204        O205   1.266       .  A
C204       C1118   1.493       .  S
O205       Cr219   2.012   1_655  S
O206       Cr219   1.966   1_655  S
O206        C207   1.255       .  A
C207       C1149   1.490       .  S
O208       Cr217   1.962       .  S
O208        C216   1.257       .  A
O209       Cr217   2.002       .  S
O209        C210   1.263       .  A
C210        O211   1.261       .  A
C210       C1569   1.496       .  S
O211       Cr218   1.996       .  S
O212       Cr218   2.009       .  S
O212        C213   1.265       .  A
C213        O214   1.257       .  A
C213       C1129   1.467       .  S
O214       Cr219   1.959       .  S
O215       Cr219   2.034       .  S
O215        C216   1.271       .  A
C216       C1209   1.479       .  S
Cr217       O220   1.777       .  S
Cr218       O220   1.774       .  S
Cr219       O220   1.770       .  S
O221       Cr239   2.031   1_554  S
O221        C229   1.268       .  A
O222       Cr239   1.958   1_554  S
O222        C223   1.256       .  A
C223        O224   1.268       .  A
C223       C1769   1.463       .  S
O224       Cr240   2.012   1_554  S
O225       Cr240   2.009   1_554  S
O225        C226   1.264       .  A
C226        O227   1.261       .  A
C226       C1049   1.491       .  S
O227       Cr241   1.998   1_554  S
O228       Cr241   1.969   1_554  S
O228        C229   1.257       .  A
C229       C1418   1.499       .  S
O230       Cr239   1.966       .  S
O230        C238   1.254       .  A
O231       Cr239   2.002       .  S
O231        C232   1.263       .  A
C232        O233   1.263       .  A
C232       C1089   1.493       .  S
O233       Cr240   2.001       .  S
O234       Cr240   2.022       .  S
O234        C235   1.270       .  A
C235        O236   1.259       .  A
C235       C1078   1.474       .  S
O236       Cr241   1.957       .  S
O237       Cr241   2.019       .  S
O237        C238   1.265       .  A
C238       C1518   1.475       .  S
Cr239       O242   1.774       .  S
Cr240       O242   1.783       .  S
Cr241       O242   1.776       .  S
O243       Cr261   1.954   1_565  S
O243        C251   1.251       .  A
O244       Cr261   2.000   1_565  S
O244        C245   1.262       .  A
C245        O246   1.259       .  A
C245       C1158   1.469       .  S
O246       Cr262   1.984   1_565  S
O247       Cr262   2.016   1_565  S
O247        C248   1.270       .  A
C248        O249   1.262       .  A
C248       C1009   1.493       .  S
O249       Cr263   1.972       .  S
O250       Cr263   2.027       .  S
O250        C251   1.267       .  A
C251       C1298   1.493       .  S
O252       Cr261   2.018       .  S
O252        C260   1.268       .  A
O253       Cr261   1.965       .  S
O253        C254   1.255       .  A
C254        O255   1.270       .  A
C254       C1469   1.480       .  S
O255       Cr262   2.029       .  S
O256       Cr262   1.978       .  S
O256        C257   1.261       .  A
C257        O258   1.266       .  A
C257       C1038   1.485       .  S
O258       Cr263   2.009   1_545  S
O259       Cr263   1.969   1_545  S
O259        C260   1.255       .  A
C260       C1098   1.508       .  S
Cr261       O264   1.757       .  S
Cr262       O264   1.768       .  S
Cr263       O264   1.770   1_565  S
O265       Cr283   2.011       .  S
O265        C273   1.268       .  A
O266       Cr283   1.983       .  S
O266        C267   1.262       .  A
C267        O268   1.269       .  A
C267        C969   1.490       .  S
O268       Cr284   2.022       .  S
O269       Cr284   2.006       .  S
O269        C270   1.266       .  A
C270        O271   1.261       .  A
C270       C1758   1.510       .  S
O271       Cr285   2.005       .  S
O272       Cr285   1.979       .  S
O272        C273   1.260       .  A
C273        C938   1.489       .  S
O274       Cr283   1.977       .  S
O274        C282   1.257       .  A
O275       Cr283   1.998       .  S
O275        C276   1.265       .  A
C276        O277   1.265       .  A
C276        C989   1.493       .  S
O277       Cr284   2.000       .  S
O278       Cr284   2.027       .  S
O278        C279   1.271       .  A
C279        O280   1.259       .  A
C279       C1869   1.478       .  S
O280       Cr285   1.964       .  S
O281       Cr285   2.014       .  S
O281        C282   1.263       .  A
C282        C949   1.487       .  S
Cr283       O286   1.768       .  S
Cr284       O286   1.770       .  S
Cr285       O286   1.776       .  S
O287       Cr305   1.997       .  S
O287        C295   1.257       .  A
O288       Cr305   1.972       .  S
O288        C289   1.263       .  A
C289        O290   1.271       .  A
C289        C889   1.483       .  S
O290       Cr306   2.019       .  S
O291       Cr306   2.002       .  S
O291        C292   1.264       .  A
C292        O293   1.263       .  A
C292       C1538   1.487       .  S
O293       Cr307   2.001       .  S
O294       Cr307   1.976       .  S
O294        C295   1.257       .  A
C295        C869   1.486       .  S
O296       Cr305   1.965       .  S
O296        C304   1.258       .  A
O297       Cr305   1.983       .  S
O297        C298   1.257       .  A
C298        O299   1.262       .  A
C298        C909   1.485       .  S
O299       Cr306   1.999       .  S
O300       Cr306   2.016       .  S
O300        C301   1.268       .  A
C301        O302   1.261       .  A
C301       C1649   1.481       .  S
O302       Cr307   1.969       .  S
O303       Cr307   2.024       .  S
O303        C304   1.268       .  A
C304        C998   1.472       .  S
Cr305       O308   1.773       .  S
Cr306       O308   1.772       .  S
Cr307       O308   1.771       .  S
O309       Cr327   2.006       .  S
O309        C317   1.265       .  A
O310       Cr327   1.968       .  S
O310        C311   1.260       .  A
C311        O312   1.269       .  A
C311        C858   1.493       .  S
O312       Cr328   2.015       .  S
O313       Cr328   1.991       .  S
O313        C314   1.261       .  A
C314        O315   1.259       .  A
C314       C1458   1.509       .  S
O315       Cr329   2.000       .  S
O316       Cr329   1.987       .  S
O316        C317   1.260       .  A
C317        C838   1.494       .  S
O318       Cr327   1.963       .  S
O318        C326   1.255       .  A
O319       Cr327   1.997       .  S
O319        C320   1.262       .  A
C320        O321   1.267       .  A
C320        C958   1.497       .  S
O321       Cr328   2.009       .  S
O322       Cr328   2.031       .  S
O322        C323   1.272       .  A
C323        O324   1.260       .  A
C323       C1389   1.486       .  S
O324       Cr329   1.969       .  S
O325       Cr329   2.009       .  S
O325        C326   1.265       .  A
C326        C918   1.474       .  S
Cr327       O330   1.768       .  S
Cr328       O330   1.763       .  S
Cr329       O330   1.775       .  S
O331       Cr349   1.957       .  S
O331        C339   1.255       .  A
O332       Cr349   2.006       .  S
O332        C333   1.265       .  A
C333        O334   1.266       .  A
C333        C798   1.489       .  S
O334       Cr350   2.006       .  S
O335       Cr350   2.037       .  S
O335        C336   1.272       .  A
C336        O337   1.256       .  A
C336       C1318   1.484       .  S
O337       Cr351   1.951       .  S
O338       Cr351   2.015       .  S
O338        C339   1.266       .  A
C339        C898   1.469       .  S
O340       Cr349   2.018       .  S
O340        C348   1.266       .  A
O341       Cr349   1.948       .  S
O341        C342   1.251       .  A
C342        O343   1.271       .  A
C342        C809   1.468       .  S
O343       Cr350   2.028       .  S
O344       Cr350   1.998       .  S
O344        C345   1.264       .  A
C345        O346   1.259       .  A
C345       C1138   1.486       .  S
O346       Cr351   1.993       .  S
O347       Cr351   1.978       .  S
O347        C348   1.256       .  A
C348        C769   1.484       .  S
Cr349       O352   1.760       .  S
Cr350       O352   1.772       .  S
Cr351       O352   1.760       .  S
O353       Cr371   1.970       .  S
O353        C361   1.258       .  A
O354       Cr371   2.016       .  S
O354        C355   1.270       .  A
C355        O356   1.265       .  A
C355        C829   1.482       .  S
O356       Cr372   1.987       .  S
O357       Cr372   2.028       .  S
O357        C358   1.270       .  A
C358        O359   1.256       .  A
C358       C1638   1.483       .  S
O359       Cr373   1.966       .  S
O360       Cr373   2.008       .  S
O360        C361   1.263       .  A
C361        C729   1.482       .  S
O362       Cr371   2.009       .  S
O362        C370   1.266       .  A
O363       Cr371   1.972       .  S
O363        C364   1.254       .  A
C364        O365   1.266       .  A
C364        C778   1.494       .  S
O365       Cr372   2.026       .  S
O366       Cr372   1.989       .  S
O366        C367   1.264       .  A
C367        O368   1.265       .  A
C367       C1558   1.485       .  S
O368       Cr373   1.999       .  S
O369       Cr373   1.965       .  S
O369        C370   1.254       .  A
C370        C749   1.505       .  S
Cr371       O374   1.761       .  S
Cr372       O374   1.778       .  S
Cr373       O374   1.770       .  S
O375       Cr393   2.014       .  S
O375        C383   1.262       .  A
O376       Cr393   1.977       .  S
O376        C377   1.260       .  A
C377        O378   1.268       .  A
C377        C878   1.474       .  S
O378       Cr394   2.015       .  S
O379       Cr394   1.999       .  S
O379        C380   1.264       .  A
C380        O381   1.263       .  A
C380       C1858   1.485       .  S
O381       Cr395   1.998       .  S
O382       Cr395   1.966       .  S
O382        C383   1.255       .  A
C383        C789   1.490       .  S
O384       Cr393   1.966       .  S
O384        C392   1.257       .  A
O385       Cr393   1.996       .  S
O385        C386   1.263       .  A
C386        O387   1.263       .  A
C386        C709   1.488       .  S
O387       Cr394   2.000       .  S
O388       Cr394   2.014       .  S
O388        C389   1.267       .  A
C389        O390   1.255       .  A
C389       C1738   1.466       .  S
O390       Cr395   1.955       .  S
O391       Cr395   2.023       .  S
O391        C392   1.267       .  A
C392        C698   1.486       .  S
Cr393       O396   1.773       .  S
Cr394       O396   1.783       .  S
Cr395       O396   1.772       .  S
O397       Cr415   1.961       .  S
O397        C405   1.253       .  A
O398       Cr415   2.005       .  S
O398        C399   1.267       .  A
C399        O400   1.262       .  A
C399        C649   1.487       .  S
O400       Cr416   1.986       .  S
O401       Cr416   2.025       .  S
O401        C402   1.270       .  A
C402        O403   1.260       .  A
C402       C1058   1.484       .  S
O403       Cr417   1.974       .  S
O404       Cr417   2.008       .  S
O404        C405   1.261       .  A
C405        C978   1.476       .  S
O406       Cr415   2.016       .  S
O406        C414   1.270       .  A
O407       Cr415   1.968       .  S
O407        C408   1.258       .  A
C408        O409   1.267       .  A
C408        C669   1.499       .  S
O409       Cr416   2.018       .  S
O410       Cr416   1.990       .  S
O410        C411   1.262       .  A
C411        O412   1.260       .  A
C411       C1258   1.492       .  S
O412       Cr417   1.999       .  S
O413       Cr417   1.978       .  S
O413        C414   1.261       .  A
C414        C718   1.484       .  S
Cr415       O418   1.764       .  S
Cr416       O418   1.766       .  S
Cr417       O418   1.771       .  S
O419       Cr437   2.009       .  S
O419        C427   1.272       .  A
O420       Cr437   1.970       .  S
O420        C421   1.259       .  A
C421        O422   1.270       .  A
C421        C629   1.484       .  S
O422       Cr438   2.024       .  S
O423       Cr438   2.003       .  S
O423        C424   1.265       .  A
C424        O425   1.265       .  A
C424       C1109   1.491       .  S
O425       Cr439   2.011       .  S
O426       Cr439   1.982       .  S
O426        C427   1.243       .  A
C427        C618   1.503       .  S
O428       Cr437   1.960       .  S
O428        C436   1.257       .  A
O429       Cr437   2.002       .  S
O429        C430   1.263       .  A
C430        O431   1.266       .  A
C430        C689   1.483       .  S
O431       Cr438   2.006       .  S
O432       Cr438   2.030       .  S
O432        C433   1.271       .  A
C433        O434   1.258       .  A
C433       C1338   1.483       .  S
O434       Cr439   1.960       .  S
O435       Cr439   2.038       .  S
O435        C436   1.273       .  A
C436        C678   1.481       .  S
Cr437       O440   1.771       .  S
Cr438       O440   1.775       .  S
Cr439       O440   1.770       .  S
O441       Cr459   2.021       .  S
O441        C449   1.267       .  A
O442       Cr459   1.976       .  S
O442        C443   1.263       .  A
C443        O444   1.271       .  A
C443        C609   1.487       .  S
O444       Cr460   2.022       .  S
O445       Cr460   1.990       .  S
O445        C446   1.262       .  A
C446        O447   1.262       .  A
C446       C1229   1.494       .  S
O447       Cr461   1.989       .  S
O448       Cr461   1.969       .  S
O448        C449   1.255       .  A
C449        C569   1.494       .  S
O450       Cr459   1.974       .  S
O450        C458   1.258       .  A
O451       Cr459   1.998       .  S
O451        C452   1.264       .  A
C452        O453   1.264       .  A
C452        C589   1.491       .  S
O453       Cr460   1.998       .  S
O454       Cr460   2.028       .  S
O454        C455   1.271       .  A
C455        O456   1.256       .  A
C455       C1069   1.488       .  S
O456       Cr461   1.961       .  S
O457       Cr461   2.010       .  S
O457        C458   1.263       .  A
C458        C558   1.481       .  S
Cr459       O462   1.766       .  S
Cr460       O462   1.771       .  S
Cr461       O462   1.764       .  S
O463       Cr481   1.973       .  S
O463        C471   1.261       .  A
O464       Cr481   1.979       .  S
O464        C465   1.259       .  A
C465        O466   1.266       .  A
C465        C578   1.494       .  S
O466       Cr482   2.003       .  S
O467       Cr482   2.005       .  S
O467        C468   1.266       .  A
C468        O469   1.259       .  A
C468       C1018   1.479       .  S
O469       Cr483   1.970       .  S
O470       Cr483   2.017       .  S
O470        C471   1.270       .  A
C471        C638   1.505       .  S
O472       Cr481   1.993       .  S
O472        C480   1.255       .  A
O473       Cr481   1.989       .  S
O473        C474   1.265       .  A
C474        O475   1.262       .  A
C474        C758   1.487       .  S
O475       Cr482   2.000       .  S
O476       Cr482   1.986       .  S
O476        C477   1.261       .  A
C477        O478   1.265       .  A
C477       C1198   1.494       .  S
O478       Cr483   2.008       .  S
O479       Cr483   1.990       .  S
O479        C480   1.258       .  A
C480        C818   1.485       .  S
Cr481       O484   1.768       .  S
Cr482       O484   1.777       .  S
Cr483       O484   1.775       .  S
O485       Cr503   1.992       .  S
O485        C493   1.259       .  A
O486       Cr503   1.965       .  S
O486        C487   1.260       .  A
C487        O488   1.268       .  A
C487        C738   1.482       .  S
O488       Cr504   2.015       .  S
O489       Cr504   1.980       .  S
O489        C490   1.261       .  A
C490        O491   1.268       .  A
C490       C1178   1.490       .  S
O491       Cr505   2.003       .  S
O492       Cr505   1.964       .  S
O492        C493   1.253       .  A
C493        C849   1.484       .  S
O494       Cr503   1.956       .  S
O494        C502   1.257       .  A
O495       Cr503   1.992       .  S
O495        C496   1.260       .  A
C496        O497   1.262       .  A
C496        C549   1.487       .  S
O497       Cr504   1.996       .  S
O498       Cr504   2.006       .  S
O498        C499   1.262       .  A
C499        O500   1.258       .  A
C499       C1029   1.503       .  S
O500       Cr505   1.964       .  S
O501       Cr505   2.020       .  S
O501        C502   1.269       .  A
C502        C529   1.476       .  S
Cr503       O506   1.770       .  S
Cr504       O506   1.769       .  S
Cr505       O506   1.773       .  S
O507       Cr525   1.974       .  S
O507        C515   1.256       .  A
O508       Cr525   1.995       .  S
O508        C509   1.264       .  A
C509        O510   1.264       .  A
C509        C929   1.478       .  S
O510       Cr526   1.990       .  S
O511       Cr526   2.031       .  S
O511        C512   1.273       .  A
C512        O513   1.260       .  A
C512       C1369   1.484       .  S
O513       Cr527   1.963       .  S
O514       Cr527   2.024       .  S
O514        C515   1.267       .  A
C515        C658   1.485       .  S
O516       Cr525   2.012       .  S
O516        C524   1.266       .  A
O517       Cr525   1.965       .  S
O517        C518   1.257       .  A
C518        O519   1.269       .  A
C518        C538   1.483       .  S
O519       Cr526   2.021       .  S
O520       Cr526   2.001       .  S
O520        C521   1.264       .  A
C521        O522   1.262       .  A
C521       C1429   1.499       .  S
O522       Cr527   2.006       .  S
O523       Cr527   1.979       .  S
O523        C524   1.258       .  A
C524        C598   1.485       .  S
Cr525       O528   1.768       .  S
Cr526       O528   1.770       .  S
Cr527       O528   1.768       .  S
C529        C530   1.414       .  A
C529        C534   1.410       .  A
C530        C531   1.403       .  A
C530       Br542   1.934       .  S
C531        C532   1.408       .  A
C531       Br546   1.933       .  S
C532        C535   1.483       .  S
C532        C533   1.411       .  A
C533        C534   1.408       .  A
C533       Br541   1.931       .  S
C534       Br545   1.927       .  S
C535        C536   1.407       .  A
C535        C540   1.409       .  A
C536        C537   1.405       .  A
C536       Br547   1.935       .  S
C537        C538   1.419       .  A
C537       Br543   1.935       .  S
C538        C539   1.412       .  A
C539        C540   1.407       .  A
C539       Br548   1.930       .  S
C540       Br544   1.929       .  S
C549        C550   1.419       .  A
C549        C554   1.418       .  A
C550        C551   1.402       .  A
C550       Br562   1.935       .  S
C551        C552   1.405       .  A
C551       Br566   1.936       .  S
C552        C555   1.483       .  S
C552        C553   1.409       .  A
C553        C554   1.412       .  A
C553       Br561   1.929       .  S
C554       Br565   1.934       .  S
C555        C556   1.406       .  A
C555        C560   1.411       .  A
C556        C557   1.404       .  A
C556       Br567   1.932       .  S
C557        C558   1.414       .  A
C557       Br563   1.931       .  S
C558        C559   1.411       .  A
C559        C560   1.411       .  A
C559       Br568   1.927       .  S
C560       Br564   1.930       .  S
C569        C570   1.421       .  A
C569        C574   1.423       .  A
C570        C571   1.408       .  A
C570       Br582   1.933       .  S
C571        C572   1.406       .  A
C571       Br586   1.934       .  S
C572        C575   1.484       .  S
C572        C573   1.405       .  A
C573        C574   1.409       .  A
C573       Br581   1.931       .  S
C574       Br585   1.936       .  S
C575        C576   1.408       .  A
C575        C580   1.402       .  A
C576        C577   1.414       .  A
C576       Br587   1.928       .  S
C577        C578   1.418       .  A
C577       Br583   1.930       .  S
C578        C579   1.425       .  A
C579        C580   1.402       .  A
C579       Br588   1.935       .  S
C580       Br584   1.938       .  S
C589        C590   1.417       .  A
C589        C594   1.418       .  A
C590        C591   1.405       .  A
C590       Br602   1.931       .  S
C591        C592   1.406       .  A
C591       Br606   1.933       .  S
C592        C595   1.486       .  S
C592        C593   1.408       .  A
C593        C594   1.412       .  A
C593       Br601   1.929       .  S
C594       Br605   1.930       .  S
C595        C596   1.404       .  A
C595        C600   1.410       .  A
C596        C597   1.407       .  A
C596       Br607   1.932       .  S
C597        C598   1.418       .  A
C597       Br603   1.927       .  S
C598        C599   1.410       .  A
C599        C600   1.410       .  A
C599       Br608   1.924       .  S
C600       Br604   1.929       .  S
C609        C610   1.414       .  A
C609        C614   1.417       .  A
C610        C611   1.409       .  A
C610       Br622   1.928       .  S
C611        C612   1.408       .  A
C611       Br626   1.930       .  S
C612        C615   1.485       .  S
C612        C613   1.406       .  A
C613        C614   1.406       .  A
C613       Br621   1.934       .  S
C614       Br625   1.923       .  S
C615        C616   1.407       .  A
C615        C620   1.402       .  A
C616        C617   1.408       .  A
C616       Br627   1.936       .  S
C617        C618   1.420       .  A
C617       Br623   1.936       .  S
C618        C619   1.431       .  A
C619        C620   1.409       .  A
C619       Br628   1.932       .  S
C620       Br624   1.934       .  S
C629        C630   1.418       .  A
C629        C634   1.413       .  A
C630        C631   1.404       .  A
C630       Br642   1.933       .  S
C631        C632   1.406       .  A
C631       Br646   1.934       .  S
C632        C635   1.486       .  S
C632        C633   1.410       .  A
C633        C634   1.412       .  A
C633       Br641   1.928       .  S
C634       Br645   1.929       .  S
C635        C636   1.406       .  A
C635        C640   1.403       .  A
C636        C637   1.413       .  A
C636       Br647   1.932       .  S
C637        C638   1.424       .  A
C637       Br643   1.934       .  S
C638        C639   1.426       .  A
C639        C640   1.407       .  A
C639       Br648   1.932       .  S
C640       Br644   1.937       .  S
C649        C650   1.412       .  A
C649        C654   1.416       .  A
C650        C651   1.403       .  A
C650       Br662   1.926       .  S
C651        C652   1.407       .  A
C651       Br666   1.933       .  S
C652        C655   1.487       .  S
C652        C653   1.410       .  A
C653        C654   1.413       .  A
C653       Br661   1.926       .  S
C654       Br665   1.932       .  S
C655        C656   1.410       .  A
C655        C660   1.407       .  A
C656        C657   1.411       .  A
C656       Br667   1.930       .  S
C657        C658   1.410       .  A
C657       Br663   1.922       .  S
C658        C659   1.414       .  A
C659        C660   1.408       .  A
C659       Br668   1.929       .  S
C660       Br664   1.930       .  S
C669        C670   1.423       .  A
C669        C674   1.420       .  A
C670        C671   1.409       .  A
C670       Br682   1.926       .  S
C671        C672   1.404       .  A
C671       Br686   1.934       .  S
C672        C675   1.486       .  S
C672        C673   1.406       .  A
C673        C674   1.409       .  A
C673       Br681   1.932       .  S
C674       Br685   1.930       .  S
C675        C676   1.409       .  A
C675        C680   1.407       .  A
C676        C677   1.409       .  A
C676       Br687   1.931       .  S
C677        C678   1.412       .  A
C677       Br683   1.930       .  S
C678        C679   1.412       .  A
C679        C680   1.408       .  A
C679       Br688   1.923       .  S
C680       Br684   1.930       .  S
C689        C690   1.412       .  A
C689        C694   1.413       .  A
C690        C691   1.413       .  A
C690       Br702   1.927       .  S
C691        C692   1.411       .  A
C691       Br706   1.929       .  S
C692        C695   1.489       .  S
C692        C693   1.407       .  A
C693        C694   1.407       .  A
C693       Br701   1.932       .  S
C694       Br705   1.925       .  S
C695        C696   1.408       .  A
C695        C700   1.409       .  A
C696        C697   1.411       .  A
C696       Br707   1.929       .  S
C697        C698   1.415       .  A
C697       Br703   1.926       .  S
C698        C699   1.413       .  A
C699        C700   1.407       .  A
C699       Br708   1.932       .  S
C700       Br704   1.930       .  S
C709        C710   1.413       .  A
C709        C714   1.413       .  A
C710        C711   1.406       .  A
C710       Br722   1.925       .  S
C711        C712   1.407       .  A
C711       Br726   1.932       .  S
C712        C715   1.488       .  S
C712        C713   1.410       .  A
C713        C714   1.413       .  A
C713       Br721   1.928       .  S
C714       Br725   1.927       .  S
C715        C716   1.408       .  A
C715        C720   1.409       .  A
C716        C717   1.409       .  A
C716       Br727   1.930       .  S
C717        C718   1.416       .  A
C717       Br723   1.932       .  S
C718        C719   1.412       .  A
C719        C720   1.408       .  A
C719       Br728   1.930       .  S
C720       Br724   1.930       .  S
C729        C730   1.414       .  A
C729        C734   1.415       .  A
C730        C731   1.407       .  A
C730       Br742   1.929       .  S
C731        C732   1.406       .  A
C731       Br746   1.930       .  S
C732        C735   1.475       .  S
C732        C733   1.404       .  A
C733        C734   1.402       .  A
C733       Br741   1.933       .  S
C734       Br745   1.924       .  S
C735        C736   1.407       .  A
C735        C740   1.402       .  A
C736        C737   1.408       .  A
C736       Br747   1.929       .  S
C737        C738   1.415       .  A
C737       Br743   1.932       .  S
C738        C739   1.420       .  A
C739        C740   1.401       .  A
C739       Br748   1.928       .  S
C740       Br744   1.935       .  S
C749        C750   1.431       .  A
C749        C754   1.425       .  A
C750        C751   1.410       .  A
C750       Br762   1.936       .  S
C751        C752   1.403       .  A
C751       Br766   1.935       .  S
C752        C755   1.485       .  S
C752        C753   1.406       .  A
C753        C754   1.408       .  A
C753       Br761   1.937       .  S
C754       Br765   1.938       .  S
C755        C756   1.408       .  A
C755        C760   1.410       .  A
C756        C757   1.405       .  A
C756       Br767   1.927       .  S
C757        C758   1.408       .  A
C757       Br763   1.927       .  S
C758        C759   1.417       .  A
C759        C760   1.408       .  A
C759       Br768   1.934       .  S
C760       Br764   1.931       .  S
C769        C770   1.409       .  A
C769        C774   1.415       .  A
C770        C771   1.411       .  A
C770       Br782   1.927       .  S
C771        C772   1.411       .  A
C771       Br786   1.928       .  S
C772        C775   1.490       .  S
C772        C773   1.408       .  A
C773        C774   1.409       .  A
C773       Br781   1.932       .  S
C774       Br785   1.929       .  S
C775        C776   1.409       .  A
C775        C780   1.406       .  A
C776        C777   1.414       .  A
C776       Br787   1.928       .  S
C777        C778   1.419       .  A
C777       Br783   1.932       .  S
C778        C779   1.422       .  A
C779        C780   1.405       .  A
C779       Br788   1.937       .  S
C780       Br784   1.937       .  S
C789        C790   1.415       .  A
C789        C794   1.418       .  A
C790        C791   1.407       .  A
C790       Br802   1.935       .  S
C791        C792   1.409       .  A
C791       Br806   1.930       .  S
C792        C795   1.491       .  S
C792        C793   1.411       .  A
C793        C794   1.412       .  A
C793       Br801   1.931       .  S
C794       Br805   1.933       .  S
C795        C796   1.405       .  A
C795        C800   1.414       .  A
C796        C797   1.402       .  A
C796       Br807   1.933       .  S
C797        C798   1.411       .  A
C797       Br803   1.919       .  S
C798        C799   1.413       .  A
C799        C800   1.417       .  A
C799       Br808   1.928       .  S
C800       Br804   1.928       .  S
C809        C810   1.407       .  A
C809        C814   1.415       .  A
C810        C811   1.409       .  A
C810       Br822   1.929       .  S
C811        C812   1.411       .  A
C811       Br826   1.927       .  S
C812        C815   1.477       .  S
C812        C813   1.407       .  A
C813        C814   1.397       .  A
C813       Br821   1.938       .  S
C814       Br825   1.938       .  S
C815        C816   1.408       .  A
C815        C820   1.405       .  A
C816        C817   1.408       .  A
C816       Br827   1.933       .  S
C817        C818   1.415       .  A
C817       Br823   1.929       .  S
C818        C819   1.420       .  A
C819        C820   1.402       .  A
C819       Br828   1.933       .  S
C820       Br824   1.937       .  S
C829        C830   1.410       .  A
C829        C834   1.412       .  A
C830        C831   1.409       .  A
C830       Br842   1.927       .  S
C831        C832   1.410       .  A
C831       Br846   1.929       .  S
C832        C835   1.489       .  S
C832        C833   1.409       .  A
C833        C834   1.410       .  A
C833       Br841   1.930       .  S
C834       Br845   1.928       .  S
C835        C836   1.407       .  A
C835        C840   1.407       .  A
C836        C837   1.408       .  A
C836       Br847   1.932       .  S
C837        C838   1.416       .  A
C837       Br843   1.927       .  S
C838        C839   1.421       .  A
C839        C840   1.412       .  A
C839       Br848   1.931       .  S
C840       Br844   1.931       .  S
C849        C850   1.416       .  A
C849        C854   1.421       .  A
C850        C851   1.404       .  A
C850       Br862   1.933       .  S
C851        C852   1.406       .  A
C851       Br866   1.933       .  S
C852        C855   1.476       .  S
C852        C853   1.403       .  A
C853        C854   1.404       .  A
C853       Br861   1.932       .  S
C854       Br865   1.932       .  S
C855        C856   1.403       .  A
C855        C860   1.402       .  A
C856        C857   1.407       .  A
C856       Br867   1.933       .  S
C857        C858   1.421       .  A
C857       Br863   1.926       .  S
C858        C859   1.423       .  A
C859        C860   1.404       .  A
C859       Br868   1.932       .  S
C860       Br864   1.935       .  S
C869        C870   1.423       .  A
C869        C874   1.417       .  A
C870        C871   1.405       .  A
C870       Br882   1.937       .  S
C871        C872   1.406       .  A
C871       Br886   1.936       .  S
C872        C875   1.479       .  S
C872        C873   1.406       .  A
C873        C874   1.405       .  A
C873       Br881   1.929       .  S
C874       Br885   1.936       .  S
C875        C876   1.410       .  A
C875        C880   1.406       .  A
C876        C877   1.411       .  A
C876       Br887   1.930       .  S
C877        C878   1.411       .  A
C877       Br883   1.928       .  S
C878        C879   1.409       .  A
C879        C880   1.400       .  A
C879       Br888   1.924       .  S
C880       Br884   1.934       .  S
C889        C890   1.415       .  A
C889        C894   1.418       .  A
C890        C891   1.408       .  A
C890       Br902   1.929       .  S
C891        C892   1.407       .  A
C891       Br906   1.931       .  S
C892        C895   1.475       .  S
C892        C893   1.403       .  A
C893        C894   1.403       .  A
C893       Br901   1.936       .  S
C894       Br905   1.925       .  S
C895        C896   1.408       .  A
C895        C900   1.405       .  A
C896        C897   1.403       .  A
C896       Br907   1.929       .  S
C897        C898   1.409       .  A
C897       Br903   1.933       .  S
C898        C899   1.412       .  A
C899        C900   1.404       .  A
C899       Br908   1.922       .  S
C900       Br904   1.932       .  S
C909        C910   1.416       .  A
C909        C914   1.418       .  A
C910        C911   1.410       .  A
C910       Br922   1.931       .  S
C911        C912   1.407       .  A
C911       Br926   1.928       .  S
C912        C915   1.480       .  S
C912        C913   1.405       .  A
C913        C914   1.403       .  A
C913       Br921   1.937       .  S
C914       Br925   1.934       .  S
C915        C916   1.410       .  A
C915        C920   1.406       .  A
C916        C917   1.407       .  A
C916       Br927   1.929       .  S
C917        C918   1.407       .  A
C917       Br923   1.925       .  S
C918        C919   1.414       .  A
C919        C920   1.404       .  A
C919       Br928   1.930       .  S
C920       Br924   1.932       .  S
C929        C930   1.413       .  A
C929        C934   1.412       .  A
C930        C931   1.409       .  A
C930       Br942   1.930       .  S
C931        C932   1.409       .  A
C931       Br946   1.930       .  S
C932        C935   1.485       .  S
C932        C933   1.408       .  A
C933        C934   1.406       .  A
C933       Br941   1.931       .  S
C934       Br945   1.930       .  S
C935        C936   1.406       .  A
C935        C940   1.407       .  A
C936        C937   1.409       .  A
C936       Br947   1.932       .  S
C937        C938   1.419       .  A
C937       Br943   1.930       .  S
C938        C939   1.414       .  A
C939        C940   1.408       .  A
C939       Br948   1.927       .  S
C940       Br944   1.931       .  S
C949        C950   1.415       .  A
C949        C954   1.412       .  A
C950        C951   1.406       .  A
C950       Br962   1.928       .  S
C951        C952   1.406       .  A
C951       Br966   1.930       .  S
C952        C955   1.490       .  S
C952        C953   1.412       .  A
C953        C954   1.413       .  A
C953       Br961   1.929       .  S
C954       Br965   1.925       .  S
C955        C956   1.405       .  A
C955        C960   1.409       .  A
C956        C957   1.406       .  A
C956       Br967   1.935       .  S
C957        C958   1.420       .  A
C957       Br963   1.930       .  S
C958        C959   1.418       .  A
C959        C960   1.416       .  A
C959       Br968   1.928       .  S
C960       Br964   1.928       .  S
C969        C970   1.418       .  A
C969        C974   1.414       .  A
C970        C971   1.404       .  A
C970       Br982   1.915       .  S
C971        C972   1.401       .  A
C971       Br986   1.937       .  S
C972        C975   1.478       .  S
C972        C973   1.406       .  A
C973        C974   1.410       .  A
C973       Br981   1.930       .  S
C974       Br985   1.923       .  S
C975        C976   1.405       .  A
C975        C980   1.407       .  A
C976        C977   1.404       .  A
C976       Br987   1.931       .  S
C977        C978   1.415       .  A
C977       Br983   1.928       .  S
C978        C979   1.414       .  A
C979        C980   1.405       .  A
C979       Br988   1.935       .  S
C980       Br984   1.931       .  S
C989        C990   1.418       .  A
C989        C994   1.419       .  A
C990        C991   1.404       .  A
C990      Br1002   1.931       .  S
C991        C992   1.407       .  A
C991      Br1006   1.936       .  S
C992        C995   1.488       .  S
C992        C993   1.410       .  A
C993        C994   1.414       .  A
C993      Br1001   1.931       .  S
C994      Br1005   1.932       .  S
C995        C996   1.409       .  A
C995       C1000   1.415       .  A
C996        C997   1.404       .  A
C996      Br1007   1.930       .  S
C997        C998   1.408       .  A
C997      Br1003   1.927       .  S
C998        C999   1.408       .  A
C999       C1000   1.410       .  A
C999      Br1008   1.930       .  S
C1000     Br1004   1.931       .  S
C1009      C1010   1.419       .  A
C1009      C1014   1.420       .  A
C1010      C1011   1.405       .  A
C1010     Br1022   1.928       .  S
C1011      C1012   1.404       .  A
C1011     Br1026   1.934       .  S
C1012      C1015   1.480       .  S
C1012      C1013   1.405       .  A
C1013      C1014   1.408       .  A
C1013     Br1021   1.931       .  S
C1014     Br1025   1.931       .  S
C1015      C1016   1.407       .  A
C1015      C1020   1.406       .  A
C1016      C1017   1.407       .  A
C1016     Br1027   1.930       .  S
C1017      C1018   1.414       .  A
C1017     Br1023   1.931       .  S
C1018      C1019   1.415       .  A
C1019      C1020   1.405       .  A
C1019     Br1028   1.931       .  S
C1020     Br1024   1.933       .  S
C1029      C1030   1.428       .  A
C1029      C1034   1.429       .  A
C1030      C1031   1.409       .  A
C1030     Br1042   1.939       .  S
C1031      C1032   1.404       .  A
C1031     Br1046   1.935       .  S
C1032      C1035   1.484       .  S
C1032      C1033   1.403       .  A
C1033      C1034   1.408       .  A
C1033     Br1041   1.935       .  S
C1034     Br1045   1.938       .  S
C1035      C1036   1.408       .  A
C1035      C1040   1.406       .  A
C1036      C1037   1.408       .  A
C1036     Br1047   1.933       .  S
C1037      C1038   1.415       .  A
C1037     Br1043   1.929       .  S
C1038      C1039   1.416       .  A
C1039      C1040   1.407       .  A
C1039     Br1048   1.929       .  S
C1040     Br1044   1.931       .  S
C1049      C1050   1.414       .  A
C1049      C1054   1.411       .  A
C1050      C1051   1.410       .  A
C1050     Br1062   1.921       .  S
C1051      C1052   1.407       .  A
C1051     Br1066   1.932       .  S
C1052      C1055   1.493       .  S
C1052      C1053   1.411       .  A
C1053      C1054   1.413       .  A
C1053     Br1061   1.928       .  S
C1054     Br1065   1.926       .  S
C1055      C1056   1.410       .  A
C1055      C1060   1.411       .  A
C1056      C1057   1.411       .  A
C1056     Br1067   1.928       .  S
C1057      C1058   1.413       .  A
C1057     Br1063   1.932       .  S
C1058      C1059   1.412       .  A
C1059      C1060   1.410       .  A
C1059     Br1068   1.931       .  S
C1060     Br1064   1.930       .  S
C1069      C1070   1.422       .  A
C1069      C1074   1.417       .  A
C1070      C1071   1.404       .  A
C1070     Br1082   1.936       .  S
C1071      C1072   1.403       .  A
C1071     Br1086   1.935       .  S
C1072      C1075   1.481       .  S
C1072      C1073   1.408       .  A
C1073      C1074   1.410       .  A
C1073     Br1081   1.931       .  S
C1074     Br1085   1.931       .  S
C1075      C1076   1.409       .  A
C1075      C1080   1.408       .  A
C1076      C1077   1.405       .  A
C1076     Br1087   1.931       .  S
C1077      C1078   1.410       .  A
C1077     Br1083   1.932       .  S
C1078      C1079   1.411       .  A
C1079      C1080   1.407       .  A
C1079     Br1088   1.926       .  S
C1080     Br1084   1.930       .  S
C1089      C1090   1.414       .  A
C1089      C1094   1.412       .  A
C1090      C1091   1.414       .  A
C1090     Br1102   1.930       .  S
C1091      C1092   1.413       .  A
C1091     Br1106   1.932       .  S
C1092      C1095   1.498       .  S
C1092      C1093   1.411       .  A
C1093      C1094   1.411       .  A
C1093     Br1101   1.932       .  S
C1094     Br1105   1.923       .  S
C1095      C1096   1.411       .  A
C1095      C1100   1.408       .  A
C1096      C1097   1.412       .  A
C1096     Br1107   1.934       .  S
C1097      C1098   1.421       .  A
C1097     Br1103   1.935       .  S
C1098      C1099   1.426       .  A
C1099      C1100   1.411       .  A
C1099     Br1108   1.938       .  S
C1100     Br1104   1.933       .  S
C1109      C1110   1.411       .  A
C1109      C1114   1.412       .  A
C1110      C1111   1.412       .  A
C1110     Br1122   1.927       .  S
C1111      C1112   1.411       .  A
C1111     Br1126   1.929       .  S
C1112      C1115   1.502       .  S
C1112      C1113   1.413       .  A
C1113      C1114   1.416       .  A
C1113     Br1121   1.927       .  S
C1114     Br1125   1.930       .  S
C1115      C1116   1.413       .  A
C1115      C1120   1.410       .  A
C1116      C1117   1.417       .  A
C1116     Br1127   1.928       .  S
C1117      C1118   1.412       .  A
C1117     Br1123   1.928       .  S
C1118      C1119   1.411       .  A
C1119      C1120   1.412       .  A
C1119     Br1128   1.923       .  S
C1120     Br1124   1.929       .  S
C1129      C1130   1.408       .  A
C1129      C1134   1.409       .  A
C1130      C1131   1.404       .  A
C1130     Br1142   1.930       .  S
C1131      C1132   1.408       .  A
C1131     Br1146   1.929       .  S
C1132      C1135   1.477       .  S
C1132      C1133   1.408       .  A
C1133      C1134   1.405       .  A
C1133     Br1141   1.930       .  S
C1134     Br1145   1.927       .  S
C1135      C1136   1.401       .  A
C1135      C1140   1.407       .  A
C1136      C1137   1.403       .  A
C1136     Br1147   1.935       .  S
C1137      C1138   1.422       .  A
C1137     Br1143   1.930       .  S
C1138      C1139   1.415       .  A
C1139      C1140   1.409       .  A
C1139     Br1148   1.930       .  S
C1140     Br1144   1.931       .  S
C1149      C1150   1.418       .  A
C1149      C1154   1.421       .  A
C1150      C1151   1.405       .  A
C1150     Br1162   1.936       .  S
C1151      C1152   1.406       .  A
C1151     Br1166   1.931       .  S
C1152      C1155   1.481       .  S
C1152      C1153   1.407       .  A
C1153      C1154   1.407       .  A
C1153     Br1161   1.935       .  S
C1154     Br1165   1.934       .  S
C1155      C1156   1.407       .  A
C1155      C1160   1.412       .  A
C1156      C1157   1.401       .  A
C1156     Br1167   1.932       .  S
C1157      C1158   1.409       .  A
C1157     Br1163   1.925   1_565  S
C1158      C1159   1.408       .  A
C1159      C1160   1.409       .  A
C1159     Br1168   1.928       .  S
C1160     Br1164   1.929       .  S
C1169      C1170   1.417       .  A
C1169      C1174   1.423       .  A
C1170      C1171   1.412       .  A
C1170     Br1182   1.931       .  S
C1171      C1172   1.408       .  A
C1171     Br1186   1.930       .  S
C1172      C1175   1.487       .  S
C1172      C1173   1.404       .  A
C1173      C1174   1.407       .  A
C1173     Br1181   1.933       .  S
C1174     Br1185   1.934       .  S
C1175      C1176   1.407       .  A
C1175      C1180   1.408       .  A
C1176      C1177   1.406       .  A
C1176     Br1187   1.930       .  S
C1177      C1178   1.416       .  A
C1177     Br1183   1.934       .  S
C1178      C1179   1.419       .  A
C1179      C1180   1.411       .  A
C1179     Br1188   1.932       .  S
C1180     Br1184   1.931       .  S
C1189      C1190   1.411       .  A
C1189      C1194   1.412       .  A
C1190      C1191   1.409       .  A
C1190     Br1202   1.929       .  S
C1191      C1192   1.409       .  A
C1191     Br1206   1.929       .  S
C1192      C1195   1.486       .  S
C1192      C1193   1.409       .  A
C1193      C1194   1.407       .  A
C1193     Br1201   1.931       .  S
C1194     Br1205   1.929       .  S
C1195      C1196   1.408       .  A
C1195      C1200   1.404       .  A
C1196      C1197   1.411       .  A
C1196     Br1207   1.929       .  S
C1197      C1198   1.417       .  A
C1197     Br1203   1.931       .  S
C1198      C1199   1.418       .  A
C1199      C1200   1.407       .  A
C1199     Br1208   1.920       .  S
C1200     Br1204   1.935       .  S
C1209      C1210   1.410       .  A
C1209      C1214   1.411       .  A
C1210      C1211   1.408       .  A
C1210     Br1222   1.922       .  S
C1211      C1212   1.408       .  A
C1211     Br1226   1.929       .  S
C1212      C1215   1.485       .  S
C1212      C1213   1.410       .  A
C1213      C1214   1.408       .  A
C1213     Br1221   1.931       .  S
C1214     Br1225   1.929       .  S
C1215      C1216   1.410       .  A
C1215      C1220   1.408       .  A
C1216      C1217   1.407       .  A
C1216     Br1227   1.931       .  S
C1217      C1218   1.409       .  A
C1217     Br1223   1.927       .  S
C1218      C1219   1.412       .  A
C1219      C1220   1.409       .  A
C1219     Br1228   1.928       .  S
C1220     Br1224   1.928       .  S
C1229      C1230   1.421       .  A
C1229      C1234   1.420       .  A
C1230      C1231   1.405       .  A
C1230     Br1242   1.935       .  S
C1231      C1232   1.405       .  A
C1231     Br1246   1.933       .  S
C1232      C1235   1.485       .  S
C1232      C1233   1.407       .  A
C1233      C1234   1.411       .  A
C1233     Br1241   1.932       .  S
C1234     Br1245   1.929       .  S
C1235      C1236   1.410       .  A
C1235      C1240   1.406       .  A
C1236      C1237   1.409       .  A
C1236     Br1247   1.929       .  S
C1237      C1238   1.412       .  A
C1237     Br1243   1.930       .  S
C1238      C1239   1.420       .  A
C1239      C1240   1.405       .  A
C1239     Br1248   1.937       .  S
C1240     Br1244   1.934       .  S
C1249      C1250   1.418       .  A
C1249      C1254   1.422       .  A
C1250      C1251   1.406       .  A
C1250     Br1262   1.929   1_554  S
C1251      C1252   1.404       .  A
C1251     Br1266   1.932       .  S
C1252      C1255   1.478       .  S
C1252      C1253   1.405       .  A
C1253      C1254   1.405       .  A
C1253     Br1261   1.933       .  S
C1254     Br1265   1.938       .  S
C1255      C1256   1.402       .  A
C1255      C1260   1.404       .  A
C1256      C1257   1.405       .  A
C1256     Br1267   1.936       .  S
C1257      C1258   1.425       .  A
C1257     Br1263   1.936       .  S
C1258      C1259   1.420       .  A
C1259      C1260   1.408       .  A
C1259     Br1268   1.933       .  S
C1260     Br1264   1.932       .  S
C1269      C1270   1.414       .  A
C1269      C1274   1.416       .  A
C1270      C1271   1.409       .  A
C1270     Br1282   1.928       .  S
C1271      C1272   1.407       .  A
C1271     Br1286   1.929       .  S
C1272      C1275   1.484       .  S
C1272      C1273   1.406       .  A
C1273      C1274   1.408       .  A
C1273     Br1281   1.934       .  S
C1274     Br1285   1.922       .  S
C1275      C1276   1.410       .  A
C1275      C1280   1.406       .  A
C1276      C1277   1.410       .  A
C1276     Br1287   1.930       .  S
C1277      C1278   1.413       .  A
C1277     Br1283   1.931       .  S
C1278      C1279   1.415       .  A
C1279      C1280   1.404       .  A
C1279     Br1288   1.929   1_655  S
C1280     Br1284   1.931       .  S
C1289      C1290   1.411       .  A
C1289      C1294   1.413       .  A
C1290      C1291   1.410       .  A
C1290     Br1302   1.932       .  S
C1291      C1292   1.411       .  A
C1291     Br1306   1.928       .  S
C1292      C1295   1.484       .  S
C1292      C1293   1.409       .  A
C1293      C1294   1.402       .  A
C1293     Br1301   1.935       .  S
C1294     Br1305   1.930       .  S
C1295      C1296   1.406       .  A
C1295      C1300   1.407       .  A
C1296      C1297   1.406       .  A
C1296     Br1307   1.936       .  S
C1297      C1298   1.424       .  A
C1297     Br1303   1.939       .  S
C1298      C1299   1.420       .  A
C1299      C1300   1.410       .  A
C1299     Br1308   1.934       .  S
C1300     Br1304   1.930       .  S
C1309      C1310   1.412       .  A
C1309      C1314   1.415       .  A
C1310      C1311   1.414       .  A
C1310     Br1322   1.928       .  S
C1311      C1312   1.412       .  A
C1311     Br1326   1.928       .  S
C1312      C1315   1.488       .  S
C1312      C1313   1.405       .  A
C1313      C1314   1.405       .  A
C1313     Br1321   1.934       .  S
C1314     Br1325   1.929       .  S
C1315      C1316   1.407       .  A
C1315      C1320   1.412       .  A
C1316      C1317   1.404       .  A
C1316     Br1327   1.932       .  S
C1317      C1318   1.416       .  A
C1317     Br1323   1.936       .  S
C1318      C1319   1.412       .  A
C1319      C1320   1.413       .  A
C1319     Br1328   1.928       .  S
C1320     Br1324   1.928       .  S
C1329      C1330   1.422       .  A
C1329      C1334   1.430       .  A
C1330      C1331   1.413       .  A
C1330     Br1342   1.932       .  S
C1331      C1332   1.407       .  A
C1331     Br1346   1.932       .  S
C1332      C1335   1.493       .  S
C1332      C1333   1.404       .  A
C1333      C1334   1.412       .  A
C1333     Br1341   1.934       .  S
C1334     Br1345   1.937       .  S
C1335      C1336   1.412       .  A
C1335      C1340   1.408       .  A
C1336      C1337   1.413       .  A
C1336     Br1347   1.929       .  S
C1337      C1338   1.411       .  A
C1337     Br1343   1.927       .  S
C1338      C1339   1.413       .  A
C1339      C1340   1.407       .  A
C1339     Br1348   1.931       .  S
C1340     Br1344   1.930       .  S
C1349      C1350   1.419       .  A
C1349      C1354   1.414       .  A
C1350      C1351   1.409       .  A
C1350     Br1362   1.927       .  S
C1351      C1352   1.406       .  A
C1351     Br1366   1.932       .  S
C1352      C1355   1.492       .  S
C1352      C1353   1.411       .  A
C1353      C1354   1.412       .  A
C1353     Br1361   1.928       .  S
C1354     Br1365   1.930       .  S
C1355      C1356   1.408       .  A
C1355      C1360   1.406       .  A
C1356      C1357   1.411       .  A
C1356     Br1367   1.928       .  S
C1357      C1358   1.418       .  A
C1357     Br1363   1.929       .  S
C1358      C1359   1.424       .  A
C1359      C1360   1.411       .  A
C1359     Br1368   1.936       .  S
C1360     Br1364   1.932       .  S
C1369      C1370   1.415       .  A
C1369      C1374   1.416       .  A
C1370      C1371   1.413       .  A
C1370     Br1382   1.931       .  S
C1371      C1372   1.411       .  A
C1371     Br1386   1.929       .  S
C1372      C1375   1.486       .  S
C1372      C1373   1.406       .  A
C1373      C1374   1.404       .  A
C1373     Br1381   1.933       .  S
C1374     Br1385   1.934       .  S
C1375      C1376   1.407       .  A
C1375      C1380   1.411       .  A
C1376      C1377   1.406       .  A
C1376     Br1387   1.933       .  S
C1377      C1378   1.416       .  A
C1377     Br1383   1.930       .  S
C1378      C1379   1.409       .  A
C1379      C1380   1.411       .  A
C1379     Br1388   1.926       .  S
C1380     Br1384   1.929       .  S
C1389      C1390   1.416       .  A
C1389      C1394   1.414       .  A
C1390      C1391   1.407       .  A
C1390     Br1402   1.932       .  S
C1391      C1392   1.407       .  A
C1391     Br1406   1.933       .  S
C1392      C1395   1.485       .  S
C1392      C1393   1.408       .  A
C1393      C1394   1.410       .  A
C1393     Br1401   1.931       .  S
C1394     Br1405   1.926       .  S
C1395      C1396   1.403       .  A
C1395      C1400   1.405       .  A
C1396      C1397   1.407       .  A
C1396     Br1407   1.935       .  S
C1397      C1398   1.428       .  A
C1397     Br1403   1.937       .  S
C1398      C1399   1.425       .  A
C1399      C1400   1.410       .  A
C1399     Br1408   1.935       .  S
C1400     Br1404   1.932       .  S
C1409      C1410   1.409       .  A
C1409      C1414   1.414       .  A
C1410      C1411   1.416       .  A
C1410     Br1422   1.928       .  S
C1411      C1412   1.417       .  A
C1411     Br1426   1.929       .  S
C1412      C1415   1.502       .  S
C1412      C1413   1.411       .  A
C1413      C1414   1.410       .  A
C1413     Br1421   1.934       .  S
C1414     Br1425   1.923   1_655  S
C1415      C1416   1.413       .  A
C1415      C1420   1.412       .  A
C1416      C1417   1.414       .  A
C1416     Br1427   1.933       .  S
C1417      C1418   1.418       .  A
C1417     Br1423   1.929       .  S
C1418      C1419   1.417       .  A
C1419      C1420   1.411       .  A
C1419     Br1428   1.934       .  S
C1420     Br1424   1.930       .  S
C1429      C1430   1.422       .  A
C1429      C1434   1.419       .  A
C1430      C1431   1.407       .  A
C1430     Br1442   1.933       .  S
C1431      C1432   1.406       .  A
C1431     Br1446   1.935       .  S
C1432      C1435   1.493       .  S
C1432      C1433   1.410       .  A
C1433      C1434   1.415       .  A
C1433     Br1441   1.929       .  S
C1434     Br1445   1.931       .  S
C1435      C1436   1.408       .  A
C1435      C1440   1.408       .  A
C1436      C1437   1.410       .  A
C1436     Br1447   1.932       .  S
C1437      C1438   1.418       .  A
C1437     Br1443   1.930       .  S
C1438      C1439   1.419       .  A
C1439      C1440   1.413       .  A
C1439     Br1448   1.930       .  S
C1440     Br1444   1.931       .  S
C1449      C1450   1.419       .  A
C1449      C1454   1.416       .  A
C1450      C1451   1.407       .  A
C1450     Br1462   1.934       .  S
C1451      C1452   1.406       .  A
C1451     Br1466   1.932       .  S
C1452      C1455   1.488       .  S
C1452      C1453   1.408       .  A
C1453      C1454   1.411       .  A
C1453     Br1461   1.932       .  S
C1454     Br1465   1.927       .  S
C1455      C1456   1.404       .  A
C1455      C1460   1.403       .  A
C1456      C1457   1.412       .  A
C1456     Br1467   1.932       .  S
C1457      C1458   1.428       .  A
C1457     Br1463   1.936       .  S
C1458      C1459   1.431       .  A
C1459      C1460   1.409       .  A
C1459     Br1468   1.939       .  S
C1460     Br1464   1.936       .  S
C1469      C1470   1.411       .  A
C1469      C1474   1.417       .  A
C1470      C1471   1.411       .  A
C1470     Br1482   1.923       .  S
C1471      C1472   1.410       .  A
C1471     Br1486   1.930       .  S
C1472      C1475   1.482       .  S
C1472      C1473   1.404       .  A
C1473      C1474   1.400       .  A
C1473     Br1481   1.935       .  S
C1474     Br1485   1.930       .  S
C1475      C1476   1.406       .  A
C1475      C1480   1.407       .  A
C1476      C1477   1.408       .  A
C1476     Br1487   1.932       .  S
C1477      C1478   1.419       .  A
C1477     Br1483   1.932       .  S
C1478      C1479   1.421       .  A
C1479      C1480   1.405       .  A
C1479     Br1488   1.940       .  S
C1480     Br1484   1.936       .  S
C1489      C1490   1.433       .  A
C1489      C1494   1.428       .  A
C1490      C1491   1.414       .  A
C1490     Br1502   1.937       .  S
C1491      C1492   1.404       .  A
C1491     Br1506   1.935       .  S
C1492      C1495   1.491       .  S
C1492      C1493   1.405       .  A
C1493      C1494   1.411       .  A
C1493     Br1501   1.935       .  S
C1494     Br1505   1.937       .  S
C1495      C1496   1.405       .  A
C1495      C1500   1.412       .  A
C1496      C1497   1.404       .  A
C1496     Br1507   1.936       .  S
C1497      C1498   1.418       .  A
C1497     Br1503   1.930       .  S
C1498      C1499   1.410       .  A
C1499      C1500   1.415       .  A
C1499     Br1508   1.928       .  S
C1500     Br1504   1.925       .  S
C1509      C1510   1.418       .  A
C1509      C1514   1.408       .  A
C1510      C1511   1.413       .  A
C1510     Br1522   1.930       .  S
C1511      C1512   1.409       .  A
C1511     Br1526   1.929       .  S
C1512      C1515   1.485       .  S
C1512      C1513   1.408       .  A
C1513      C1514   1.402       .  A
C1513     Br1521   1.930       .  S
C1514     Br1525   1.921       .  S
C1515      C1516   1.412       .  A
C1515      C1520   1.408       .  A
C1516      C1517   1.410       .  A
C1516     Br1527   1.927       .  S
C1517      C1518   1.407       .  A
C1517     Br1523   1.928       .  S
C1518      C1519   1.409       .  A
C1519      C1520   1.404       .  A
C1519     Br1528   1.924       .  S
C1520     Br1524   1.931       .  S
C1529      C1530   1.414       .  A
C1529      C1534   1.413       .  A
C1530      C1531   1.414       .  A
C1530     Br1542   1.931       .  S
C1531      C1532   1.412       .  A
C1531     Br1546   1.930       .  S
C1532      C1535   1.496       .  S
C1532      C1533   1.410       .  A
C1533      C1534   1.410       .  A
C1533     Br1541   1.930       .  S
C1534     Br1545   1.927       .  S
C1535      C1536   1.413       .  A
C1535      C1540   1.410       .  A
C1536      C1537   1.414       .  A
C1536     Br1547   1.928       .  S
C1537      C1538   1.410       .  A
C1537     Br1543   1.927       .  S
C1538      C1539   1.411       .  A
C1539      C1540   1.409       .  A
C1539     Br1548   1.922       .  S
C1540     Br1544   1.931       .  S
C1549      C1550   1.417       .  A
C1549      C1554   1.420       .  A
C1550      C1551   1.410       .  A
C1550     Br1562   1.930       .  S
C1551      C1552   1.407       .  A
C1551     Br1566   1.930       .  S
C1552      C1555   1.482       .  S
C1552      C1553   1.404       .  A
C1553      C1554   1.405       .  A
C1553     Br1561   1.935       .  S
C1554     Br1565   1.930       .  S
C1555      C1556   1.406       .  A
C1555      C1560   1.406       .  A
C1556      C1557   1.409       .  A
C1556     Br1567   1.930       .  S
C1557      C1558   1.416       .  A
C1557     Br1563   1.931       .  S
C1558      C1559   1.417       .  A
C1559      C1560   1.406       .  A
C1559     Br1568   1.931       .  S
C1560     Br1564   1.933       .  S
C1569      C1570   1.420       .  A
C1569      C1574   1.419       .  A
C1570      C1571   1.409       .  A
C1570     Br1582   1.932       .  S
C1571      C1572   1.405       .  A
C1571     Br1586   1.933       .  S
C1572      C1575   1.490       .  S
C1572      C1573   1.408       .  A
C1573      C1574   1.413       .  A
C1573     Br1581   1.930       .  S
C1574     Br1585   1.932       .  S
C1575      C1576   1.407       .  A
C1575      C1580   1.412       .  A
C1576      C1577   1.409       .  A
C1576     Br1587   1.930       .  S
C1577      C1578   1.416       .  A
C1577     Br1583   1.928       .  S
C1578      C1579   1.410       .  A
C1579      C1580   1.410       .  A
C1579     Br1588   1.929       .  S
C1580     Br1584   1.930       .  S
C1589      C1590   1.418       .  A
C1589      C1594   1.412       .  A
C1590      C1591   1.405       .  A
C1590     Br1602   1.918       .  S
C1591      C1592   1.404       .  A
C1591     Br1606   1.937       .  S
C1592      C1595   1.484       .  S
C1592      C1593   1.409       .  A
C1593      C1594   1.412       .  A
C1593     Br1601   1.927       .  S
C1594     Br1605   1.927       .  S
C1595      C1596   1.407       .  A
C1595      C1600   1.408       .  A
C1596      C1597   1.408       .  A
C1596     Br1607   1.929       .  S
C1597      C1598   1.415       .  A
C1597     Br1603   1.929       .  S
C1598      C1599   1.416       .  A
C1599      C1600   1.406       .  A
C1599     Br1608   1.934       .  S
C1600     Br1604   1.932       .  S
C1609      C1610   1.411       .  A
C1609      C1614   1.413       .  A
C1610      C1611   1.414       .  A
C1610     Br1622   1.925       .  S
C1611      C1612   1.412       .  A
C1611     Br1626   1.928       .  S
C1612      C1615   1.485       .  S
C1612      C1613   1.406       .  A
C1613      C1614   1.400       .  A
C1613     Br1621   1.935       .  S
C1614     Br1625   1.926       .  S
C1615      C1616   1.408       .  A
C1615      C1620   1.407       .  A
C1616      C1617   1.412       .  A
C1616     Br1627   1.929       .  S
C1617      C1618   1.420       .  A
C1617     Br1623   1.931       .  S
C1618      C1619   1.418       .  A
C1619      C1620   1.403       .  A
C1619     Br1628   1.936       .  S
C1620     Br1624   1.934       .  S
C1629      C1630   1.412       .  A
C1629      C1634   1.415       .  A
C1630      C1631   1.412       .  A
C1630     Br1642   1.928       .  S
C1631      C1632   1.410       .  A
C1631     Br1646   1.928       .  S
C1632      C1635   1.492       .  S
C1632      C1633   1.410       .  A
C1633      C1634   1.410       .  A
C1633     Br1641   1.932       .  S
C1634     Br1645   1.932       .  S
C1635      C1636   1.409       .  A
C1635      C1640   1.412       .  A
C1636      C1637   1.408       .  A
C1636     Br1647   1.930       .  S
C1637      C1638   1.416       .  A
C1637     Br1643   1.934       .  S
C1638      C1639   1.411       .  A
C1639      C1640   1.411       .  A
C1639     Br1648   1.930       .  S
C1640     Br1644   1.928       .  S
C1649      C1650   1.412       .  A
C1649      C1654   1.415       .  A
C1650      C1651   1.404       .  A
C1650     Br1662   1.930       .  S
C1651      C1652   1.407       .  A
C1651     Br1666   1.933       .  S
C1652      C1655   1.479       .  S
C1652      C1653   1.406       .  A
C1653      C1654   1.409       .  A
C1653     Br1661   1.932       .  S
C1654     Br1665   1.925       .  S
C1655      C1656   1.401       .  A
C1655      C1660   1.407       .  A
C1656      C1657   1.402       .  A
C1656     Br1667   1.934       .  S
C1657      C1658   1.424       .  A
C1657     Br1663   1.936       .  S
C1658      C1659   1.418       .  A
C1659      C1660   1.409       .  A
C1659     Br1668   1.931       .  S
C1660     Br1664   1.931       .  S
C1669      C1670   1.423       .  A
C1669      C1674   1.424       .  A
C1670      C1671   1.408       .  A
C1670     Br1682   1.936       .  S
C1671      C1672   1.405       .  A
C1671     Br1686   1.930       .  S
C1672      C1675   1.487       .  S
C1672      C1673   1.406       .  A
C1673      C1674   1.409       .  A
C1673     Br1681   1.933       .  S
C1674     Br1685   1.936       .  S
C1675      C1676   1.409       .  A
C1675      C1680   1.407       .  A
C1676      C1677   1.410       .  A
C1676     Br1687   1.929       .  S
C1677      C1678   1.412       .  A
C1677     Br1683   1.928       .  S
C1678      C1679   1.415       .  A
C1679      C1680   1.408       .  A
C1679     Br1688   1.930       .  S
C1680     Br1684   1.932       .  S
C1689      C1690   1.414       .  A
C1689      C1694   1.411       .  A
C1690      C1691   1.403       .  A
C1690     Br1702   1.925       .  S
C1691      C1692   1.405       .  A
C1691     Br1706   1.935       .  S
C1692      C1695   1.482       .  S
C1692      C1693   1.410       .  A
C1693      C1694   1.410       .  A
C1693     Br1701   1.928       .  S
C1694     Br1705   1.928       .  S
C1695      C1696   1.406       .  A
C1695      C1700   1.408       .  A
C1696      C1697   1.408       .  A
C1696     Br1707   1.932       .  S
C1697      C1698   1.418       .  A
C1697     Br1703   1.928       .  S
C1698      C1699   1.413       .  A
C1699      C1700   1.405       .  A
C1699     Br1708   1.934       .  S
C1700     Br1704   1.930       .  S
C1709      C1710   1.417       .  A
C1709      C1714   1.411       .  A
C1710      C1711   1.408       .  A
C1710     Br1722   1.930       .  S
C1711      C1712   1.407       .  A
C1711     Br1726   1.934       .  S
C1712      C1715   1.489       .  S
C1712      C1713   1.412       .  A
C1713      C1714   1.411       .  A
C1713     Br1721   1.929       .  S
C1714     Br1725   1.929       .  S
C1715      C1716   1.411       .  A
C1715      C1720   1.412       .  A
C1716      C1717   1.411       .  A
C1716     Br1727   1.930       .  S
C1717      C1718   1.412       .  A
C1717     Br1723   1.929       .  S
C1718      C1719   1.406       .  A
C1719      C1720   1.404       .  A
C1719     Br1728   1.929       .  S
C1720     Br1724   1.931       .  S
C1729      C1730   1.415       .  A
C1729      C1734   1.422       .  A
C1730      C1731   1.407       .  A
C1730     Br1742   1.932       .  S
C1731      C1732   1.406       .  A
C1731     Br1746   1.930       .  S
C1732      C1735   1.479       .  S
C1732      C1733   1.404       .  A
C1733      C1734   1.404       .  A
C1733     Br1741   1.934       .  S
C1734     Br1745   1.936       .  S
C1735      C1736   1.408       .  A
C1735      C1740   1.408       .  A
C1736      C1737   1.406       .  A
C1736     Br1747   1.928       .  S
C1737      C1738   1.407       .  A
C1737     Br1743   1.928       .  S
C1738      C1739   1.409       .  A
C1739      C1740   1.404       .  A
C1739     Br1748   1.930       .  S
C1740     Br1744   1.931       .  S
C1749      C1750   1.409       .  A
C1749      C1754   1.415       .  A
C1750      C1751   1.412       .  A
C1750     Br1762   1.928       .  S
C1751      C1752   1.412       .  A
C1751     Br1766   1.927       .  S
C1752      C1755   1.495       .  S
C1752      C1753   1.409       .  A
C1753      C1754   1.410       .  A
C1753     Br1761   1.931       .  S
C1754     Br1765   1.931       .  S
C1755      C1756   1.405       .  A
C1755      C1760   1.407       .  A
C1756      C1757   1.412       .  A
C1756     Br1767   1.935       .  S
C1757      C1758   1.430       .  A
C1757     Br1763   1.938       .  S
C1758      C1759   1.423       .  A
C1759      C1760   1.414       .  A
C1759     Br1768   1.932       .  S
C1760     Br1764   1.931       .  S
C1769      C1770   1.408       .  A
C1769      C1774   1.410       .  A
C1770      C1771   1.405       .  A
C1770     Br1782   1.930       .  S
C1771      C1772   1.408       .  A
C1771     Br1786   1.928       .  S
C1772      C1775   1.468       .  S
C1772      C1773   1.403       .  A
C1773      C1774   1.397       .  A
C1773     Br1781   1.935       .  S
C1774     Br1785   1.920   1_554  S
C1775      C1776   1.404       .  A
C1775      C1780   1.404       .  A
C1776      C1777   1.401       .  A
C1776     Br1787   1.933       .  S
C1777      C1778   1.416       .  A
C1777     Br1783   1.934       .  S
C1778      C1779   1.417       .  A
C1779      C1780   1.404       .  A
C1779     Br1788   1.931       .  S
C1780     Br1784   1.933       .  S
C1789      C1790   1.420       .  A
C1789      C1794   1.418       .  A
C1790      C1791   1.411       .  A
C1790     Br1802   1.931       .  S
C1791      C1792   1.406       .  A
C1791     Br1806   1.929       .  S
C1792      C1795   1.489       .  S
C1792      C1793   1.409       .  A
C1793      C1794   1.409       .  A
C1793     Br1801   1.932       .  S
C1794     Br1805   1.932       .  S
C1795      C1796   1.411       .  A
C1795      C1800   1.407       .  A
C1796      C1797   1.410       .  A
C1796     Br1807   1.930       .  S
C1797      C1798   1.412       .  A
C1797     Br1803   1.931       .  S
C1798      C1799   1.416       .  A
C1799      C1800   1.408       .  A
C1799     Br1808   1.930       .  S
C1800     Br1804   1.930       .  S
C1809      C1810   1.416       .  A
C1809      C1814   1.412       .  A
C1810      C1811   1.408       .  A
C1810     Br1822   1.927       .  S
C1811      C1812   1.406       .  A
C1811     Br1826   1.932       .  S
C1812      C1815   1.487       .  S
C1812      C1813   1.411       .  A
C1813      C1814   1.410       .  A
C1813     Br1821   1.931       .  S
C1814     Br1825   1.928       .  S
C1815      C1816   1.405       .  A
C1815      C1820   1.407       .  A
C1816      C1817   1.407       .  A
C1816     Br1827   1.936       .  S
C1817      C1818   1.429       .  A
C1817     Br1823   1.941       .  S
C1818      C1819   1.421       .  A
C1819      C1820   1.411       .  A
C1819     Br1828   1.933       .  S
C1820     Br1824   1.930       .  S
C1829      C1830   1.420       .  A
C1829      C1834   1.415       .  A
C1830      C1831   1.410       .  A
C1830     Br1842   1.924       .  S
C1831      C1832   1.405       .  A
C1831     Br1846   1.933       .  S
C1832      C1835   1.486       .  S
C1832      C1833   1.408       .  A
C1833      C1834   1.408       .  A
C1833     Br1841   1.930       .  S
C1834     Br1845   1.932       .  S
C1835      C1836   1.406       .  A
C1835      C1840   1.411       .  A
C1836      C1837   1.406       .  A
C1836     Br1847   1.933       .  S
C1837      C1838   1.413       .  A
C1837     Br1843   1.923   1_545  S
C1838      C1839   1.411       .  A
C1839      C1840   1.412       .  A
C1839     Br1848   1.929       .  S
C1840     Br1844   1.928       .  S
C1849      C1850   1.417       .  A
C1849      C1854   1.417       .  A
C1850      C1851   1.411       .  A
C1850     Br1862   1.932       .  S
C1851      C1852   1.409       .  A
C1851     Br1866   1.932       .  S
C1852      C1855   1.493       .  S
C1852      C1853   1.410       .  A
C1853      C1854   1.409       .  A
C1853     Br1861   1.932       .  S
C1854     Br1865   1.931       .  S
C1855      C1856   1.414       .  A
C1855      C1860   1.408       .  A
C1856      C1857   1.413       .  A
C1856     Br1867   1.930       .  S
C1857      C1858   1.411       .  A
C1857     Br1863   1.928       .  S
C1858      C1859   1.411       .  A
C1859      C1860   1.406       .  A
C1859     Br1868   1.921       .  S
C1860     Br1864   1.931       .  S
C1869      C1870   1.412       .  A
C1869      C1874   1.412       .  A
C1870      C1871   1.403       .  A
C1870     Br1882   1.931       .  S
C1871      C1872   1.406       .  A
C1871     Br1886   1.932       .  S
C1872      C1875   1.483       .  S
C1872      C1873   1.409       .  A
C1873      C1874   1.411       .  A
C1873     Br1881   1.929       .  S
C1874     Br1885   1.927       .  S
C1875      C1876   1.406       .  A
C1875      C1880   1.407       .  A
C1876      C1877   1.405       .  A
C1876     Br1887   1.934       .  S
C1877      C1878   1.419       .  A
C1877     Br1883   1.935       .  S
C1878      C1879   1.416       .  A
C1879      C1880   1.410       .  A
C1879     Br1888   1.927       .  S
C1880     Br1884   1.930       .  S
C1889      C1890   1.419       .  A
C1889      C1894   1.424       .  A
C1890      C1891   1.410       .  A
C1890     Br1902   1.932       .  S
C1891      C1892   1.408       .  A
C1891     Br1906   1.933       .  S
C1892      C1895   1.488       .  S
C1892      C1893   1.404       .  A
C1893      C1894   1.410       .  A
C1893     Br1901   1.932       .  S
C1894     Br1905   1.930       .  S
C1895      C1896   1.412       .  A
C1895      C1900   1.408       .  A
C1896      C1897   1.410       .  A
C1896     Br1907   1.930       .  S
C1897      C1898   1.411       .  A
C1897     Br1903   1.928       .  S
C1898      C1899   1.409       .  A
C1899      C1900   1.406       .  A
C1899     Br1908   1.928       .  S
C1900     Br1904   1.929       .  S
C1909      C1910   1.415       .  A
C1909      C1914   1.410       .  A
C1910      C1911   1.402       .  A
C1910     Br1922   1.932       .  S
C1911      C1912   1.405       .  A
C1911     Br1926   1.933       .  S
C1912      C1915   1.478       .  S
C1912      C1913   1.409       .  A
C1913      C1914   1.408       .  A
C1913     Br1921   1.929       .  S
C1914     Br1925   1.927       .  S
C1915      C1916   1.404       .  A
C1915      C1920   1.403       .  A
C1916      C1917   1.405       .  A
C1916     Br1927   1.936       .  S
C1917      C1918   1.424       .  A
C1917     Br1923   1.937       .  S
C1918      C1919   1.421       .  A
C1919      C1920   1.407       .  A
C1919     Br1928   1.932       .  S
C1920     Br1924   1.930       .  S
C1929      C1930   1.419       .  A
C1929      C1934   1.422       .  A
C1930      C1931   1.410       .  A
C1930     Br1942   1.931       .  S
C1931      C1932   1.406       .  A
C1931     Br1946   1.931       .  S
C1932      C1935   1.489       .  S
C1932      C1933   1.406       .  A
C1933      C1934   1.411       .  A
C1933     Br1941   1.934       .  S
C1934     Br1945   1.927       .  S
C1935      C1936   1.410       .  A
C1935      C1940   1.405       .  A
C1936      C1937   1.413       .  A
C1936     Br1947   1.928       .  S
C1937      C1938   1.416       .  A
C1937     Br1943   1.930       .  S
C1938      C1939   1.417       .  A
C1939      C1940   1.405       .  A
C1939     Br1948   1.919       .  S
C1940     Br1944   1.935       .  S
C1949      C1950   1.415       .  A
C1949      C1954   1.418       .  A
C1950      C1951   1.406       .  A
C1950     Br1962   1.932       .  S
C1951      C1952   1.409       .  A
C1951     Br1966   1.929       .  S
C1952      C1955   1.494       .  S
C1952      C1953   1.411       .  A
C1953      C1954   1.414       .  A
C1953     Br1961   1.930       .  S
C1954     Br1965   1.932       .  S
C1955      C1956   1.408       .  A
C1955      C1960   1.411       .  A
C1956      C1957   1.411       .  A
C1956     Br1967   1.933       .  S
C1957      C1958   1.420       .  A
C1957     Br1963   1.929       .  S
C1958      C1959   1.414       .  A
C1959      C1960   1.412       .  A
C1959     Br1968   1.929       .  S
C1960     Br1964   1.930       .  S
