geometry optimzed in LAMMPS
_audit_creation_date              2020-11-30 
_audit_creation_method            'lammps2cif' 
_symmetry_space_group_name_H-M    'P1' 
_symmetry_Int_Tables_number       1 
_symmetry_cell_setting            triclinic 
loop_ 
_symmetry_equiv_pos_as_xyz 
  x,y,z 
_cell_length_a                    36.62147264 
_cell_length_b                    35.6021828282864 
_cell_length_c                    31.70948830783494 
_cell_angle_alpha                 90.03777779152183 
_cell_angle_beta                  89.98544835355735 
_cell_angle_gamma                 76.75518728994722 
loop_ 
_atom_site_label 
_atom_site_type_symbol 
_atom_site_fract_x 
_atom_site_fract_y 
_atom_site_fract_z 
_atom_site_charge 
N1          N  0.98174924  0.71259877  0.00166632    -0.03600
C2          C  0.97976929  0.74458959  0.02545289    -0.01000
C3          C  0.44328474  0.76602578  0.02766820    -0.23900
C4          C  0.42191657  0.74668123  0.00435717    -0.24100
C5          C  0.44611697  0.71394655  0.98871891    -0.01100
H6          H  0.43310308  0.79202840  0.04590327     0.12700
H7          H  0.39172615  0.75472205  0.00101360     0.12700
N8          N  0.06012558  0.19558688  0.98949697    -0.03600
C9          C  0.06396383  0.16002749  0.00640246    -0.01000
C10         C  0.09954498  0.13774174  0.99867851    -0.23900
C11         C  0.11818228  0.16029109  0.97580590    -0.24100
C12         C  0.09331284  0.19552838  0.97061817    -0.01100
H13         H  0.11135125  0.10902371  0.01052995     0.12700
H14         H  0.14723684  0.15254197  0.96595175     0.12700
Fe15       Fe  0.31942956  0.45252156  0.80463709     1.65800
Fe16       Fe  0.22434816  0.46176433  0.80167071     1.73200
Fe17       Fe  0.26969830  0.45703972  0.89658357     1.54400
O18         O  0.31780991  0.41358925  0.90231501    -0.81800
O19         O  0.19526987  0.50818086  0.83680620    -0.80100
O20         O  0.34605635  0.40523815  0.83972636    -0.84300
O21         O  0.33774576  0.48951164  0.84513405    -0.79100
O22         O  0.23877452  0.41517870  0.89880057    -0.80900
O23         O  0.23727422  0.50083517  0.75923060    -0.83700
C24         C  0.32656691  0.50661074  0.87943140     0.97100
C25         C  0.34364081  0.39575995  0.87807875     1.04600
O26         O  0.27114341  0.45702430  0.83427591    -1.12600
O27         O  0.24747571  0.41589756  0.76269624    -0.79900
O28         O  0.30836553  0.41500679  0.75926312    -0.78600
O29         O  0.29980290  0.49930310  0.90091918    -0.79200
C30         C  0.27999052  0.40298272  0.74743658     0.96000
O31         O  0.29805937  0.49957387  0.76667999    -0.77200
O32         O  0.20534210  0.42321978  0.83943726    -0.82400
C33         C  0.19664877  0.51803365  0.87517856     0.98600
C34         C  0.21386622  0.40699507  0.87484769     1.04600
O35         O  0.22180815  0.50051594  0.90022395    -0.78000
C36         C  0.26613936  0.51332756  0.75028864     1.02900
N37         N  0.31664404  0.69612484  0.49213111    -0.03600
C38         C  0.31945300  0.66455454  0.51681760    -0.01000
C39         C  0.35607701  0.64339174  0.51802214    -0.23900
C40         C  0.37666045  0.66261930  0.49340524    -0.24100
C41         C  0.35191781  0.69510539  0.47801038    -0.01100
H42         H  0.36702081  0.61802544  0.53695745     0.12700
H43         H  0.40681827  0.65496660  0.48957505     0.12700
N44         N  0.23764796  0.22183706  0.48769149    -0.03600
C45         C  0.23594221  0.25795031  0.50254960    -0.01000
C46         C  0.19986794  0.28028850  0.49893572    -0.23900
C47         C  0.17850333  0.25709921  0.48198445    -0.24100
C48         C  0.20218104  0.22128376  0.47547441    -0.01100
H49         H  0.18947517  0.30924567  0.51092238     0.12700
H50         H  0.14850954  0.26503002  0.47678438     0.12700
Fe51       Fe  0.47906423  0.96206594  0.30472806     1.65800
Fe52       Fe  0.07390487  0.95443252  0.30340374     1.73200
Fe53       Fe  0.02749054  0.95556423  0.39730717     1.54400
O54         O  0.47840559  0.99829761  0.40312664    -0.81800
O55         O  0.10347792  0.90770496  0.33746339    -0.80100
O56         O  0.45231867  0.00964380  0.33952741    -0.84300
O57         O  0.45942548  0.92537135  0.34453700    -0.79100
O58         O  0.05761792  0.99809133  0.40179657    -0.80900
O59         O  0.06189733  0.91568711  0.25971135    -0.83700
C60         C  0.47088186  0.90651213  0.37769611     0.97100
C61         C  0.45347845  0.01743813  0.37857372     1.04600
O62         O  0.02690029  0.95744803  0.33515599    -1.12600
O63         O  0.05065201  0.00095670  0.26569813    -0.75100
O64         O  0.49059329  0.99936582  0.25946941    -0.78600
O65         O  0.49824706  0.91236248  0.39921351    -0.79200
C66         C  0.01849158  0.01290691  0.24938264     0.96000
O67         O  0.00154990  0.91470468  0.26768887    -0.77200
O68         O  0.09151363  0.99283588  0.34273014    -0.82400
C69         C  0.10172622  0.89632056  0.37518973     0.98600
C70         C  0.08222798  0.00786711  0.37858990     1.04600
O71         O  0.07597548  0.91247298  0.40039298    -0.78000
C72         C  0.03365191  0.90191517  0.25121758     1.02900
C73         C  0.37238187  0.10564033  0.38730575    -0.10900
C74         C  0.36562258  0.10761643  0.43101597     0.06200
C75         C  0.38872000  0.08053869  0.45736562    -0.09700
C76         C  0.41783579  0.05198201  0.44040039    -0.11300
C77         C  0.42412493  0.04939572  0.39657298    -0.01100
C78         C  0.40109642  0.07668620  0.37023818    -0.10200
C79         C  0.33419436  0.13752447  0.44881661     0.06200
H80         H  0.38431631  0.08157346  0.49115918     0.08200
H81         H  0.43492851  0.03138272  0.46160244     0.11600
H82         H  0.40515349  0.07557229  0.33638278     0.11900
H83         H  0.35484207  0.12600926  0.36621533     0.08200
C84         C  0.32878600  0.17615817  0.43601374    -0.10900
C85         C  0.29799704  0.20397523  0.45062312    -0.10200
C86         C  0.27159310  0.19370247  0.47773529    -0.01100
C87         C  0.27744785  0.15540477  0.49172609    -0.11300
C88         C  0.30864553  0.12754882  0.47756195    -0.09700
H89         H  0.34821861  0.18474845  0.41430912     0.08200
H90         H  0.29385094  0.23338142  0.43945776     0.11900
H91         H  0.25735956  0.14698703  0.51265068     0.11600
H92         H  0.31209229  0.09794941  0.48784293     0.08200
C93         C  0.18992098  0.13091671  0.41854964    -0.10900
C94         C  0.15616929  0.12588159  0.43654307     0.06200
C95         C  0.13893290  0.15160031  0.46805982    -0.09700
C96         C  0.15478284  0.18168479  0.48107718    -0.11300
C97         C  0.18817601  0.18705811  0.46285959    -0.01100
C98         C  0.20569410  0.16139673  0.43144859    -0.10200
C99         C  0.13812647  0.09482269  0.42186488     0.06200
H100        H  0.11261455  0.14909137  0.48203104     0.08200
H101        H  0.14060392  0.20115515  0.50528884     0.11600
H102        H  0.23094881  0.16540128  0.41615307     0.11900
H103        H  0.20402365  0.11141734  0.39435739     0.08200
C104        C  0.13777891  0.08553523  0.37882846    -0.10900
C105        C  0.11963774  0.05731037  0.36488512    -0.10200
C106        C  0.10114031  0.03793077  0.39360563    -0.01100
C107        C  0.10141050  0.04720478  0.43661812    -0.11300
C108        C  0.11987303  0.07517897  0.45061691    -0.09700
H109        H  0.15090795  0.10061429  0.35577402     0.08200
H110        H  0.11967712  0.05102050  0.33145750     0.11900
H111        H  0.08773885  0.03250326  0.45953043     0.11600
H112        H  0.12005703  0.08125437  0.48406924     0.08200
C113        C  0.36247130  0.79533000  0.44818021    -0.10900
C114        C  0.39636604  0.78659083  0.42568003     0.06200
C115        C  0.41322157  0.74793883  0.41672605    -0.09700
C116        C  0.39721038  0.71839621  0.43138143    -0.11300
C117        C  0.36436123  0.72683914  0.45594075    -0.01100
C118        C  0.34684800  0.76571811  0.46364757    -0.10200
C119        C  0.41524906  0.81750354  0.41362488     0.06200
H120        H  0.43917015  0.74060086  0.39899502     0.08200
H121        H  0.41127685  0.68880316  0.42464881     0.11600
H122        H  0.32233258  0.77342008  0.48358566     0.11900
H123        H  0.34916700  0.82499103  0.45570793     0.08200
C124        C  0.39576929  0.85005554  0.39151598    -0.10900
C125        C  0.41389531  0.87902662  0.37993521    -0.10200
C126        C  0.45156567  0.87637183  0.39114479    -0.01100
C127        C  0.47081677  0.84410818  0.41397357    -0.11300
C128        C  0.45291333  0.81473692  0.42473640    -0.09700
H129        H  0.36672100  0.85273137  0.38264894     0.08200
H130        H  0.39838380  0.90365003  0.36239932     0.11900
H131        H  0.49991327  0.84123213  0.42275133     0.11600
H132        H  0.46834532  0.78998381  0.44214344     0.08200
C133        C  0.22578560  0.77048598  0.48608948    -0.10900
C134        C  0.21986822  0.77327422  0.44213647     0.06200
C135        C  0.24504278  0.74810324  0.41564576    -0.09700
C136        C  0.27610850  0.72217838  0.43241973    -0.11300
C137        C  0.28256136  0.72039657  0.47603274    -0.01100
C138        C  0.25677730  0.74414127  0.50287373    -0.10200
C139        C  0.18872482  0.80339318  0.42382834     0.06200
H140        H  0.24099445  0.74866667  0.38182143     0.08200
H141        H  0.29563312  0.70378053  0.41131815     0.11600
H142        H  0.26154580  0.74357010  0.53654319     0.11900
H143        H  0.20733318  0.78968742  0.50747345     0.08200
C144        C  0.15400852  0.81465859  0.44462743    -0.10900
C145        C  0.12563180  0.84437218  0.42848356    -0.10200
C146        C  0.13108332  0.86335359  0.39090652    -0.01100
C147        C  0.16536137  0.85144660  0.36946899    -0.11300
C148        C  0.19389141  0.82203585  0.38585123    -0.09700
H149        H  0.14870690  0.80053059  0.47345581     0.08200
H150        H  0.09939517  0.85257672  0.44556836     0.11900
H151        H  0.17057332  0.86561176  0.34060784     0.11600
H152        H  0.22041937  0.81471129  0.36927563     0.08200
C153        C  0.31595148  0.34627265  0.64879683    -0.10900
C154        C  0.28932847  0.32394381  0.64338092     0.06200
C155        C  0.26122052  0.32570732  0.67395812    -0.09700
C156        C  0.25874074  0.35062811  0.70843330    -0.11300
C157        C  0.28477804  0.37374914  0.71343052    -0.01100
C158        C  0.31401333  0.37057795  0.68385533    -0.10200
C159        C  0.28746651  0.30252855  0.60375816     0.06200
H160        H  0.24002668  0.30917643  0.67003507     0.08200
H161        H  0.23598538  0.35240574  0.73071932     0.11600
H162        H  0.33436704  0.38821666  0.68677332     0.11900
H163        H  0.33763951  0.34556846  0.62537908     0.08200
C164        C  0.28224559  0.32263153  0.56534959    -0.10900
C165        C  0.26965244  0.30601025  0.52985900    -0.10200
C166        C  0.26291348  0.26881005  0.53207398    -0.01100
C167        C  0.27241198  0.24707007  0.56901974    -0.11300
C168        C  0.28418112  0.26401005  0.60483835    -0.09700
H169        H  0.28434395  0.35245793  0.56389553     0.08200
H170        H  0.26192910  0.32343438  0.50185070     0.11900
H171        H  0.26673972  0.21861427  0.57167312     0.11600
H172        H  0.28807686  0.24804522  0.63419733     0.08200
C173        C  0.28797830  0.59458399  0.68539983    -0.10900
C174        C  0.26027122  0.59946216  0.65388455     0.06200
C175        C  0.23276803  0.57776428  0.65618251    -0.09700
C176        C  0.23374913  0.55081967  0.68855574    -0.11300
C177        C  0.26264044  0.54461409  0.71878429    -0.01100
C178        C  0.28929686  0.56730774  0.71730227    -0.10200
C179        C  0.26358354  0.62325581  0.61626847     0.06200
H180        H  0.21113612  0.58093118  0.63230267     0.08200
H181        H  0.21280515  0.53372022  0.68890082     0.11600
H182        H  0.31172255  0.56336994  0.74029471     0.11900
H183        H  0.30993251  0.61040378  0.68412119     0.08200
C184        C  0.27451906  0.65839776  0.62073192    -0.10900
C185        C  0.28825451  0.67513835  0.58610283    -0.10200
C186        C  0.29111218  0.65709551  0.54653117    -0.01100
C187        C  0.27669505  0.62420505  0.54109342    -0.11300
C188        C  0.26261943  0.60758677  0.57565622    -0.09700
H189        H  0.27525993  0.67124931  0.65160792     0.08200
H190        H  0.30021762  0.69992727  0.59114189     0.11900
H191        H  0.27956737  0.60937885  0.51100559     0.11600
H192        H  0.25463771  0.58038486  0.57129194     0.08200
C193        C  0.13917756  0.25737633  0.90124002    -0.10900
C194        C  0.13547539  0.29076949  0.92604071     0.06200
C195        C  0.11485367  0.29383618  0.96373772    -0.09700
C196        C  0.09907659  0.26360693  0.97693694    -0.11300
C197        C  0.10407480  0.22970868  0.95292992    -0.01100
C198        C  0.12394764  0.22690661  0.91483521    -0.10200
C199        C  0.15456534  0.32143536  0.91343599     0.06200
H200        H  0.11150758  0.31934938  0.98329865     0.08200
H201        H  0.08471318  0.26588793  0.00698808     0.11600
H202        H  0.12847631  0.20073772  0.89619576     0.11900
H203        H  0.15521555  0.25419296  0.87223154     0.08200
C204        C  0.17622860  0.33656823  0.94268407    -0.10900
C205        C  0.19577248  0.36416983  0.93022253    -0.10200
C206        C  0.19363683  0.37748457  0.88837434    -0.01100
C207        C  0.17150838  0.36261898  0.85934224    -0.11300
C208        C  0.15236734  0.33475360  0.87169617    -0.09700
H209        H  0.17866343  0.32642935  0.97498453     0.08200
H210        H  0.21243589  0.37515087  0.95336118     0.11900
H211        H  0.16922098  0.37225315  0.82685972     0.11600
H212        H  0.13568506  0.32367452  0.84864372     0.08200
C213        C  0.47688365  0.27948120  0.98740682    -0.10900
C214        C  0.46100328  0.27398301  0.94804936     0.06200
C215        C  0.47667182  0.24060740  0.92471008    -0.09700
C216        C  0.50841863  0.21430990  0.93938872    -0.11300
C217        C  0.02508216  0.22069990  0.97769278    -0.01100
C218        C  0.00879554  0.25301305  0.00207014    -0.10200
C219        C  0.42981934  0.30395865  0.93002552     0.06200
H220        H  0.46475401  0.23518578  0.89467836     0.08200
H221        H  0.52079336  0.18937969  0.92035207     0.11600
H222        H  0.02146629  0.25834444  0.03164232     0.11900
H223        H  0.46561076  0.30503417  0.00597306     0.08200
C224        C  0.39995408  0.32342231  0.95536168    -0.10900
C225        C  0.37156411  0.35266050  0.93833886    -0.10200
C226        C  0.37249515  0.36321684  0.89561092    -0.01100
C227        C  0.40216127  0.34335736  0.87023559    -0.11300
C228        C  0.43042225  0.31411407  0.88721696    -0.09700
H229        H  0.39853815  0.31601052  0.98834505     0.08200
H230        H  0.34912587  0.36730948  0.95883476     0.11900
H231        H  0.40392992  0.35079736  0.83730897     0.11600
H232        H  0.45334827  0.30009971  0.86699736     0.08200
C233        C  0.48417650  0.07042285  0.15107219    -0.10900
C234        C  0.00959166  0.09441786  0.14808061     0.06200
C235        C  0.03581695  0.09379780  0.18056308    -0.09700
C236        C  0.03802405  0.06807277  0.21421046    -0.11300
C237        C  0.01358738  0.04297072  0.21640374    -0.01100
C238        C  0.48587264  0.04521786  0.18520417    -0.10200
C239        C  0.01280329  0.11578402  0.10876626     0.06200
H240        H  0.05607413  0.11163671  0.17866416     0.08200
H241        H  0.05947325  0.06712267  0.23796234     0.11600
H242        H  0.46670451  0.02614774  0.18608319     0.11900
H243        H  0.46384445  0.07031550  0.12629094     0.08200
C244        C  0.01770416  0.09580427  0.07021755    -0.10900
C245        C  0.03085378  0.11207115  0.03491632    -0.10200
C246        C  0.03845854  0.14883970  0.03739239    -0.01100
C247        C  0.02980104  0.17046119  0.07455917    -0.11300
C248        C  0.01735772  0.15389070  0.11020225    -0.09700
H249        H  0.51470863  0.06628138  0.06840708     0.08200
H250        H  0.53784352  0.09481699  0.00664182     0.11900
H251        H  0.03623511  0.19856585  0.07736199     0.11600
H252        H  0.01370425  0.16981315  0.13961445     0.08200
C253        C  0.07053788  0.63587391  0.99149338    -0.10900
C254        C  0.07763908  0.63683730  0.94780838     0.06200
C255        C  0.05346656  0.66462549  0.92302387    -0.09700
C256        C  0.02248538  0.68978365  0.94108733    -0.11300
C257        C  0.01526179  0.68827724  0.98437638    -0.01100
C258        C  0.03977125  0.66157094  0.00963056    -0.10200
C259        C  0.10921645  0.60821176  0.92795556     0.06200
H260        H  0.05834910  0.66691453  0.88956113     0.08200
H261        H  0.00380030  0.71039342  0.92126702     0.11600
H262        H  0.03423065  0.65961282  0.04296992     0.11900
H263        H  0.08803024  0.61448469  0.01153131     0.08200
C264        C  0.14299920  0.59439884  0.94987108    -0.10900
C265        C  0.17163617  0.56584266  0.93227760    -0.10200
C266        C  0.16743963  0.55055072  0.89210745    -0.01100
C267        C  0.13428714  0.56526867  0.86949657    -0.11300
C268        C  0.10545816  0.59355980  0.88728382    -0.09700
H269        H  0.14735086  0.60554631  0.98077204     0.08200
H270        H  0.19699369  0.55546445  0.95041728     0.11900
H271        H  0.13007718  0.55404110  0.83857378     0.11600
H272        H  0.07972510  0.60298267  0.86959295     0.08200
C273        C  0.40090724  0.56324449  0.89624664    -0.10900
C274        C  0.38151683  0.59423532  0.92068704     0.06200
C275        C  0.34412908  0.59607869  0.93220684    -0.09700
C276        C  0.32639434  0.56711579  0.91958570    -0.11300
C277        C  0.34557274  0.53637276  0.89447973    -0.01100
C278        C  0.38294615  0.53475911  0.88281818    -0.10200
C279        C  0.40030700  0.62450502  0.93455471     0.06200
H280        H  0.32884457  0.61974100  0.95131773     0.08200
H281        H  0.29751062  0.56912636  0.92875833     0.11600
H282        H  0.39837262  0.51128818  0.86356802     0.11900
H283        H  0.42976214  0.56143102  0.88708470     0.08200
C284        C  0.43344518  0.61486416  0.95828457    -0.10900
C285        C  0.44949232  0.64384876  0.97449444    -0.10200
C286        C  0.43307968  0.68286889  0.96640206    -0.01100
C287        C  0.40079602  0.69222215  0.94102795    -0.11300
C288        C  0.38438310  0.66330762  0.92552744    -0.09700
H289        H  0.44589715  0.58501623  0.96583927     0.08200
H290        H  0.47349599  0.63565821  0.99511826     0.11900
H291        H  0.38759538  0.72202670  0.93417073     0.11600
H292        H  0.35896248  0.67121189  0.90693076     0.08200
C293        C  0.06669066  0.83846589  0.15634450    -0.10900
C294        C  0.04113107  0.81447215  0.15613634     0.06200
C295        C  0.51514302  0.81744659  0.18930560    -0.09700
C296        C  0.51344085  0.84516056  0.22084475    -0.11300
C297        C  0.03802351  0.87015917  0.22022126    -0.01100
C298        C  0.06542633  0.86579863  0.18838701    -0.10200
C299        C  0.03770028  0.79017461  0.11903812     0.06200
H300        H  0.49471099  0.79974422  0.18961399     0.08200
H301        H  0.49226873  0.84765000  0.24520535     0.11600
H302        H  0.08475022  0.88469053  0.18717579     0.11900
H303        H  0.08690741  0.83678036  0.13107719     0.08200
C304        C  0.03440226  0.80661490  0.07853923    -0.10900
C305        C  0.02011751  0.78855231  0.04529727    -0.10200
C306        C  0.00954694  0.75359992  0.05192720    -0.01100
C307        C  0.51693835  0.73499098  0.09099622    -0.11300
C308        C  0.53086262  0.75320736  0.12441444    -0.09700
H309        H  0.03912567  0.83521778  0.07358362     0.08200
H310        H  0.01371587  0.80374783  0.01564640     0.11900
H311        H  0.50792184  0.70858326  0.09708609     0.11600
H312        H  0.53337009  0.73986940  0.15529679     0.08200
N313        N  0.48174933  0.71259876  0.00166630    -0.03600
C314        C  0.47976937  0.74458956  0.02545290    -0.01000
C315        C  0.94328463  0.76602578  0.02766820    -0.23900
C316        C  0.92191647  0.74668122  0.00435719    -0.24100
C317        C  0.94611688  0.71394655  0.98871893    -0.01100
H318        H  0.93310293  0.79202842  0.04590326     0.12700
H319        H  0.89172602  0.75472204  0.00101359     0.12700
N320        N  0.56012548  0.19558689  0.98949695    -0.03600
C321        C  0.56396374  0.16002750  0.00640247    -0.01000
C322        C  0.59954489  0.13774177  0.99867853    -0.23900
C323        C  0.61818217  0.16029110  0.97580588    -0.24100
C324        C  0.59331274  0.19552840  0.97061814    -0.01100
H325        H  0.61135119  0.10902374  0.01053000     0.12700
H326        H  0.64723672  0.15254199  0.96595172     0.12700
Fe327      Fe  0.81942958  0.45252155  0.80463704     1.65800
Fe328      Fe  0.72434816  0.46176433  0.80167071     1.73200
Fe329      Fe  0.76969833  0.45703971  0.89658349     1.54400
O330        O  0.81780998  0.41358928  0.90231499    -0.81800
O331        O  0.69526979  0.50818082  0.83680619    -0.80100
O332        O  0.84605645  0.40523816  0.83972636    -0.84300
O333        O  0.83774569  0.48951170  0.84513397    -0.79100
O334        O  0.73877460  0.41517865  0.89880054    -0.80900
O335        O  0.73727410  0.50083519  0.75923057    -0.83700
C336        C  0.82656683  0.50661079  0.87943133     0.97100
C337        C  0.84364090  0.39575996  0.87807875     1.04600
O338        O  0.77114345  0.45702430  0.83427584    -1.12600
O339        O  0.74747573  0.41589758  0.76269626    -0.79900
O340        O  0.80836556  0.41500676  0.75926310    -0.78600
O341        O  0.79980287  0.49930309  0.90091913    -0.79200
C342        C  0.77999053  0.40298272  0.74743658     0.96000
O343        O  0.79805926  0.49957385  0.76667998    -0.77200
O344        O  0.70534218  0.42321975  0.83943726    -0.82400
C345        C  0.69664872  0.51803360  0.87517854     0.98600
C346        C  0.71386627  0.40699505  0.87484769     1.04600
O347        O  0.72180812  0.50051588  0.90022390    -0.78000
C348        C  0.76613926  0.51332757  0.75028864     1.02900
N349        N  0.81664407  0.69612485  0.49213113    -0.03600
C350        C  0.81945301  0.66455454  0.51681760    -0.01000
C351        C  0.85607700  0.64339173  0.51802213    -0.23900
C352        C  0.87666046  0.66261928  0.49340522    -0.24100
C353        C  0.85191783  0.69510539  0.47801038    -0.01100
H354        H  0.86702079  0.61802543  0.53695746     0.12700
H355        H  0.90681825  0.65496656  0.48957500     0.12700
N356        N  0.73764792  0.22183705  0.48769149    -0.03600
C357        C  0.73594219  0.25795030  0.50254958    -0.01000
C358        C  0.69986794  0.28028851  0.49893572    -0.23900
C359        C  0.67850330  0.25709925  0.48198448    -0.24100
C360        C  0.70218097  0.22128379  0.47547443    -0.01100
H361        H  0.68947521  0.30924568  0.51092239     0.12700
H362        H  0.64850949  0.26503009  0.47678445     0.12700
Fe363      Fe  0.97906424  0.96206594  0.30472804     1.65800
Fe364      Fe  0.57390486  0.95443251  0.30340374     1.73200
Fe365      Fe  0.52749056  0.95556423  0.39730717     1.54400
O366        O  0.97840562  0.99829765  0.40312665    -0.81800
O367        O  0.60347793  0.90770496  0.33746337    -0.80100
O368        O  0.95231870  0.00964381  0.33952741    -0.84300
O369        O  0.95942550  0.92537132  0.34453697    -0.79100
O370        O  0.55761790  0.99809139  0.40179654    -0.80900
O371        O  0.56189726  0.91568710  0.25971137    -0.83700
C372        C  0.97088186  0.90651213  0.37769610     0.97100
C373        C  0.95347850  0.01743817  0.37857372     1.04600
O374        O  0.52690029  0.95744803  0.33515601    -1.12600
O375        O  0.55065195  0.00095670  0.26569815    -0.75100
O376        O  0.99059333  0.99936582  0.25946943    -0.78600
O377        O  0.99824702  0.91236252  0.39921356    -0.79200
C378        C  0.51849154  0.01290691  0.24938264     0.96000
O379        O  0.50154985  0.91470469  0.26768887    -0.77200
O380        O  0.59151367  0.99283585  0.34273016    -0.82400
C381        C  0.60172626  0.89632056  0.37518971     0.98600
C382        C  0.58222800  0.00786711  0.37858991     1.04600
O383        O  0.57597553  0.91247299  0.40039298    -0.78000
C384        C  0.53365187  0.90191517  0.25121758     1.02900
C385        C  0.87238178  0.10564028  0.38730575    -0.10900
C386        C  0.86562254  0.10761643  0.43101598     0.06200
C387        C  0.88871997  0.08053867  0.45736561    -0.09700
C388        C  0.91783581  0.05198205  0.44040039    -0.11300
C389        C  0.92412495  0.04939576  0.39657298    -0.01100
C390        C  0.90109635  0.07668617  0.37023818    -0.10200
C391        C  0.83419434  0.13752448  0.44881661     0.06200
H392        H  0.88431626  0.08157340  0.49115918     0.08200
H393        H  0.93492858  0.03138280  0.46160244     0.11600
H394        H  0.90515338  0.07557224  0.33638277     0.11900
H395        H  0.85484194  0.12600918  0.36621533     0.08200
C396        C  0.82878596  0.17615818  0.43601376    -0.10900
C397        C  0.79799700  0.20397522  0.45062311    -0.10200
C398        C  0.77159304  0.19370245  0.47773529    -0.01100
C399        C  0.77744781  0.15540476  0.49172606    -0.11300
C400        C  0.80864550  0.12754882  0.47756198    -0.09700
H401        H  0.84821862  0.18474849  0.41430912     0.08200
H402        H  0.79385087  0.23338140  0.43945774     0.11900
H403        H  0.75735949  0.14698698  0.51265064     0.11600
H404        H  0.81209228  0.09794944  0.48784301     0.08200
C405        C  0.68992082  0.13091689  0.41854950    -0.10900
C406        C  0.65616923  0.12588167  0.43654301     0.06200
C407        C  0.63893281  0.15160034  0.46805979    -0.09700
C408        C  0.65478272  0.18168485  0.48107716    -0.11300
C409        C  0.68817588  0.18705819  0.46285957    -0.01100
C410        C  0.70569397  0.16139685  0.43144853    -0.10200
C411        C  0.63812651  0.09482270  0.42186486     0.06200
H412        H  0.61261448  0.14909135  0.48203099     0.08200
H413        H  0.64060379  0.20115518  0.50528885     0.11600
H414        H  0.73094870  0.16540137  0.41615312     0.11900
H415        H  0.70402348  0.11141761  0.39435716     0.08200
C416        C  0.63777889  0.08553528  0.37882842    -0.10900
C417        C  0.61963777  0.05731036  0.36488513    -0.10200
C418        C  0.60114036  0.03793077  0.39360564    -0.01100
C419        C  0.60141048  0.04720486  0.43661814    -0.11300
C420        C  0.61987307  0.07517902  0.45061689    -0.09700
H421        H  0.65090781  0.10061442  0.35577397     0.08200
H422        H  0.61967714  0.05102048  0.33145750     0.11900
H423        H  0.58773875  0.03250349  0.45953041     0.11600
H424        H  0.62005705  0.08125446  0.48406926     0.08200
C425        C  0.86247138  0.79533000  0.44818023    -0.10900
C426        C  0.89636612  0.78659082  0.42568005     0.06200
C427        C  0.91322164  0.74793881  0.41672608    -0.09700
C428        C  0.89721041  0.71839621  0.43138143    -0.11300
C429        C  0.86436126  0.72683914  0.45594072    -0.01100
C430        C  0.84684804  0.76571812  0.46364756    -0.10200
C431        C  0.91524912  0.81750354  0.41362487     0.06200
H432        H  0.93917021  0.74060083  0.39899505     0.08200
H433        H  0.91127688  0.68880314  0.42464880     0.11600
H434        H  0.82233266  0.77342010  0.48358562     0.11900
H435        H  0.84916709  0.82499104  0.45570794     0.08200
C436        C  0.89576935  0.85005553  0.39151601    -0.10900
C437        C  0.91389532  0.87902663  0.37993522    -0.10200
C438        C  0.95156571  0.87637181  0.39114477    -0.01100
C439        C  0.97081681  0.84410819  0.41397354    -0.11300
C440        C  0.95291340  0.81473692  0.42473639    -0.09700
H441        H  0.86672099  0.85273139  0.38264898     0.08200
H442        H  0.89838384  0.90365001  0.36239939     0.11900
H443        H  0.99991334  0.84123215  0.42275130     0.11600
H444        H  0.96834539  0.78998382  0.44214342     0.08200
C445        C  0.72578566  0.77048599  0.48608958    -0.10900
C446        C  0.71986827  0.77327424  0.44213657     0.06200
C447        C  0.74504282  0.74810325  0.41564583    -0.09700
C448        C  0.77610855  0.72217840  0.43241980    -0.11300
C449        C  0.78256142  0.72039660  0.47603278    -0.01100
C450        C  0.75677737  0.74414128  0.50287379    -0.10200
C451        C  0.68872486  0.80339316  0.42382837     0.06200
H452        H  0.74099445  0.74866663  0.38182157     0.08200
H453        H  0.79563316  0.70378050  0.41131820     0.11600
H454        H  0.76154589  0.74357002  0.53654326     0.11900
H455        H  0.70733324  0.78968736  0.50747359     0.08200
C456        C  0.65400856  0.81465860  0.44462745    -0.10900
C457        C  0.62563186  0.84437220  0.42848357    -0.10200
C458        C  0.63108337  0.86335359  0.39090651    -0.01100
C459        C  0.66536145  0.85144660  0.36946901    -0.11300
C460        C  0.69389147  0.82203583  0.38585127    -0.09700
H461        H  0.64870692  0.80053064  0.47345585     0.08200
H462        H  0.59939522  0.85257676  0.44556836     0.11900
H463        H  0.67057340  0.86561176  0.34060787     0.11600
H464        H  0.72041946  0.81471127  0.36927570     0.08200
C465        C  0.81595144  0.34627265  0.64879685    -0.10900
C466        C  0.78932848  0.32394382  0.64338091     0.06200
C467        C  0.76122051  0.32570730  0.67395811    -0.09700
C468        C  0.75874072  0.35062810  0.70843332    -0.11300
C469        C  0.78477799  0.37374915  0.71343051    -0.01100
C470        C  0.81401329  0.37057798  0.68385532    -0.10200
C471        C  0.78746657  0.30252853  0.60375814     0.06200
H472        H  0.74002672  0.30917640  0.67003506     0.08200
H473        H  0.73598538  0.35240570  0.73071933     0.11600
H474        H  0.83436695  0.38821667  0.68677331     0.11900
H475        H  0.83763955  0.34556845  0.62537911     0.08200
C476        C  0.78224561  0.32263152  0.56534958    -0.10900
C477        C  0.76965241  0.30601025  0.52985902    -0.10200
C478        C  0.76291346  0.26881004  0.53207398    -0.01100
C479        C  0.77241192  0.24707010  0.56901976    -0.11300
C480        C  0.78418117  0.26401004  0.60483834    -0.09700
H481        H  0.78434396  0.35245793  0.56389551     0.08200
H482        H  0.76192901  0.32343442  0.50185073     0.11900
H483        H  0.76673957  0.21861432  0.57167321     0.11600
H484        H  0.78807693  0.24804520  0.63419732     0.08200
C485        C  0.78797833  0.59458396  0.68539984    -0.10900
C486        C  0.76027128  0.59946214  0.65388455     0.06200
C487        C  0.73276806  0.57776429  0.65618248    -0.09700
C488        C  0.73374911  0.55081971  0.68855572    -0.11300
C489        C  0.76264037  0.54461410  0.71878429    -0.01100
C490        C  0.78929684  0.56730773  0.71730231    -0.10200
C491        C  0.76358359  0.62325580  0.61626846     0.06200
H492        H  0.71113619  0.58093119  0.63230263     0.08200
H493        H  0.71280505  0.53372027  0.68890078     0.11600
H494        H  0.81172246  0.56336992  0.74029475     0.11900
H495        H  0.80993258  0.61040373  0.68412121     0.08200
C496        C  0.77451903  0.65839779  0.62073192    -0.10900
C497        C  0.78825456  0.67513835  0.58610285    -0.10200
C498        C  0.79111222  0.65709552  0.54653118    -0.01100
C499        C  0.77669510  0.62420505  0.54109343    -0.11300
C500        C  0.76261950  0.60758676  0.57565621    -0.09700
H501        H  0.77525983  0.67124937  0.65160791     0.08200
H502        H  0.80021770  0.69992724  0.59114194     0.11900
H503        H  0.77956739  0.60937887  0.51100556     0.11600
H504        H  0.75463777  0.58038488  0.57129190     0.08200
C505        C  0.63917763  0.25737630  0.90124003    -0.10900
C506        C  0.63547546  0.29076946  0.92604071     0.06200
C507        C  0.61485376  0.29383615  0.96373773    -0.09700
C508        C  0.59907667  0.26360692  0.97693696    -0.11300
C509        C  0.60407481  0.22970868  0.95292993    -0.01100
C510        C  0.62394772  0.22690658  0.91483524    -0.10200
C511        C  0.65456532  0.32143536  0.91343597     0.06200
H512        H  0.61150767  0.31934937  0.98329864     0.08200
H513        H  0.58471324  0.26588795  0.00698810     0.11600
H514        H  0.62847636  0.20073771  0.89619577     0.11900
H515        H  0.65521559  0.25419297  0.87223150     0.08200
C516        C  0.67622853  0.33656826  0.94268407    -0.10900
C517        C  0.69577239  0.36416989  0.93022256    -0.10200
C518        C  0.69363680  0.37748461  0.88837435    -0.01100
C519        C  0.67150837  0.36261897  0.85934222    -0.11300
C520        C  0.65236731  0.33475362  0.87169616    -0.09700
H521        H  0.67866337  0.32642935  0.97498452     0.08200
H522        H  0.71243580  0.37515089  0.95336122     0.11900
H523        H  0.66922104  0.37225306  0.82685967     0.11600
H524        H  0.63568500  0.32367454  0.84864368     0.08200
C525        C  0.97688377  0.27948120  0.98740681    -0.10900
C526        C  0.96100337  0.27398299  0.94804935     0.06200
C527        C  0.97667187  0.24060735  0.92471013    -0.09700
C528        C  0.00841872  0.21430991  0.93938871    -0.11300
C529        C  0.52508204  0.22069988  0.97769280    -0.01100
C530        C  0.50879543  0.25301305  0.00207016    -0.10200
C531        C  0.92981944  0.30395862  0.93002550     0.06200
H532        H  0.96475398  0.23518568  0.89467843     0.08200
H533        H  0.02079347  0.18937972  0.92035202     0.11600
H534        H  0.52146617  0.25834445  0.03164230     0.11900
H535        H  0.96561086  0.30503416  0.00597305     0.08200
C536        C  0.89995415  0.32342222  0.95536167    -0.10900
C537        C  0.87156420  0.35266044  0.93833889    -0.10200
C538        C  0.87249521  0.36321683  0.89561095    -0.01100
C539        C  0.90216128  0.34335731  0.87023557    -0.11300
C540        C  0.93042229  0.31411406  0.88721694    -0.09700
H541        H  0.89853822  0.31601033  0.98834502     0.08200
H542        H  0.84912595  0.36730943  0.95883484     0.11900
H543        H  0.90392987  0.35079727  0.83730895     0.11600
H544        H  0.95334835  0.30009970  0.86699729     0.08200
C545        C  0.98417656  0.07042286  0.15107217    -0.10900
C546        C  0.50959159  0.09441785  0.14808059     0.06200
C547        C  0.53581687  0.09379783  0.18056309    -0.09700
C548        C  0.53802399  0.06807279  0.21421048    -0.11300
C549        C  0.51358735  0.04297071  0.21640373    -0.01100
C550        C  0.98587268  0.04521787  0.18520418    -0.10200
C551        C  0.51280317  0.11578402  0.10876625     0.06200
H552        H  0.55607402  0.11163677  0.17866419     0.08200
H553        H  0.55947315  0.06712271  0.23796235     0.11600
H554        H  0.96670456  0.02614777  0.18608318     0.11900
H555        H  0.96384456  0.07031549  0.12629095     0.08200
C556        C  0.51770404  0.09580427  0.07021754    -0.10900
C557        C  0.53085374  0.11207112  0.03491634    -0.10200
C558        C  0.53845844  0.14883969  0.03739239    -0.01100
C559        C  0.52980090  0.17046120  0.07455916    -0.11300
C560        C  0.51735759  0.15389070  0.11020224    -0.09700
H561        H  0.01470879  0.06628136  0.06840712     0.08200
H562        H  0.03784350  0.09481706  0.00664177     0.11900
H563        H  0.53623500  0.19856583  0.07736200     0.11600
H564        H  0.51370417  0.16981312  0.13961447     0.08200
C565        C  0.57053796  0.63587397  0.99149339    -0.10900
C566        C  0.57763916  0.63683732  0.94780839     0.06200
C567        C  0.55346665  0.66462550  0.92302387    -0.09700
C568        C  0.52248546  0.68978366  0.94108731    -0.11300
C569        C  0.51526188  0.68827727  0.98437637    -0.01100
C570        C  0.53977138  0.66157104  0.00963057    -0.10200
C571        C  0.60921653  0.60821177  0.92795558     0.06200
H572        H  0.55834920  0.66691452  0.88956113     0.08200
H573        H  0.50380036  0.71039342  0.92126698     0.11600
H574        H  0.53423079  0.65961297  0.04296994     0.11900
H575        H  0.58803029  0.61448474  0.01153134     0.08200
C576        C  0.64299929  0.59439885  0.94987108    -0.10900
C577        C  0.67163624  0.56584265  0.93227759    -0.10200
C578        C  0.66743966  0.55055073  0.89210745    -0.01100
C579        C  0.63428719  0.56526870  0.86949656    -0.11300
C580        C  0.60545822  0.59355982  0.88728383    -0.09700
H581        H  0.64735094  0.60554631  0.98077205     0.08200
H582        H  0.69699377  0.55546438  0.95041728     0.11900
H583        H  0.63007721  0.55404112  0.83857378     0.11600
H584        H  0.57972518  0.60298265  0.86959299     0.08200
C585        C  0.90090716  0.56324454  0.89624655    -0.10900
C586        C  0.88151678  0.59423533  0.92068704     0.06200
C587        C  0.84412906  0.59607868  0.93220692    -0.09700
C588        C  0.82639427  0.56711583  0.91958570    -0.11300
C589        C  0.84557264  0.53637283  0.89447967    -0.01100
C590        C  0.88294604  0.53475917  0.88281815    -0.10200
C591        C  0.90030699  0.62450501  0.93455470     0.06200
H592        H  0.82884459  0.61974095  0.95131791     0.08200
H593        H  0.79751056  0.56912641  0.92875836     0.11600
H594        H  0.89837250  0.51128820  0.86356802     0.11900
H595        H  0.92976200  0.56143107  0.88708457     0.08200
C596        C  0.93344516  0.61486416  0.95828459    -0.10900
C597        C  0.94949228  0.64384877  0.97449444    -0.10200
C598        C  0.93307962  0.68286889  0.96640210    -0.01100
C599        C  0.90079596  0.69222215  0.94102797    -0.11300
C600        C  0.88438310  0.66330760  0.92552739    -0.09700
H601        H  0.94589711  0.58501624  0.96583934     0.08200
H602        H  0.97349601  0.63565821  0.99511826     0.11900
H603        H  0.88759528  0.72202670  0.93417076     0.11600
H604        H  0.85896251  0.67121184  0.90693065     0.08200
C605        C  0.56669068  0.83846589  0.15634452    -0.10900
C606        C  0.54113114  0.81447213  0.15613635     0.06200
C607        C  0.01514300  0.81744661  0.18930562    -0.09700
C608        C  0.01344088  0.84516056  0.22084480    -0.11300
C609        C  0.53802346  0.87015918  0.22022126    -0.01100
C610        C  0.56542630  0.86579868  0.18838700    -0.10200
C611        C  0.53770034  0.79017461  0.11903811     0.06200
H612        H  0.99471092  0.79974422  0.18961404     0.08200
H613        H  0.99226886  0.84764999  0.24520541     0.11600
H614        H  0.58475012  0.88469062  0.18717578     0.11900
H615        H  0.58690746  0.83678037  0.13107722     0.08200
C616        C  0.53440218  0.80661496  0.07853924    -0.10900
C617        C  0.52011742  0.78855235  0.04529730    -0.10200
C618        C  0.50954701  0.75359990  0.05192720    -0.01100
C619        C  0.01693825  0.73499101  0.09099622    -0.11300
C620        C  0.03086252  0.75320737  0.12441445    -0.09700
H621        H  0.53912552  0.83521785  0.07358363     0.08200
H622        H  0.51371572  0.80374790  0.01564645     0.11900
H623        H  0.00792171  0.70858330  0.09708607     0.11600
H624        H  0.03336996  0.73986942  0.15529680     0.08200
loop_ 
_geom_bond_atom_site_label_1 
_geom_bond_atom_site_label_2 
_geom_bond_distance 
_geom_bond_site_symmetry_2 
_ccdc_geom_bond_type 
N1            C2   1.354       .  A
N1          C317   1.358   1_554  A
N1          C257   1.438   1_654  S
C2          C306   1.469   1_655  S
C2          C315   1.380       .  A
C3            C4   1.371       .  A
C3          C314   1.380       .  A
C3            H6   1.082       .  S
C4            C5   1.384   1_554  A
C4            H7   1.082       .  S
C5          N313   1.358   1_556  A
C5          C286   1.481       .  S
N8           C12   1.354       .  A
N8            C9   1.352   1_556  A
N8          C217   1.436       .  S
C9          C246   1.472       .  S
C9           C10   1.383   1_554  A
C10          C11   1.374       .  A
C10          H13   1.082   1_556  S
C11          C12   1.381       .  A
C11          H14   1.082       .  S
C12         C197   1.474       .  S
Fe15         O31   2.066       .  S
Fe15         O21   2.058       .  S
Fe15         O28   2.065       .  S
Fe15         O20   2.067       .  S
Fe15         O26   1.976       .  S
Fe16         O19   2.073       .  S
Fe16         O23   2.067       .  S
Fe16         O27   2.067       .  S
Fe16         O32   2.059       .  S
Fe16         O26   1.976       .  S
Fe17         O35   2.059       .  S
Fe17         O22   2.069       .  S
Fe17         O29   2.064       .  S
Fe17         O18   2.069       .  S
Fe17         O26   1.976       .  S
O18          C25   1.270       .  A
O19          C33   1.270       .  A
O20          C25   1.271       .  A
O21          C24   1.267       .  A
O22          C34   1.271       .  A
O23          C36   1.269       .  A
C24         C277   1.474       .  S
C24          O29   1.269       .  A
C25         C226   1.486       .  S
O27          C30   1.270       .  A
O28          C30   1.268       .  A
C30         C157   1.480       .  S
O31          C36   1.271       .  A
O32          C34   1.269       .  A
C33         C266   1.485       .  S
C33          O35   1.267       .  A
C34         C206   1.481       .  S
C36         C177   1.480       .  S
N37          C41   1.360       .  A
N37          C38   1.355       .  A
N37         C137   1.439       .  S
C38         C186   1.470       .  S
C38          C39   1.380       .  A
C39          C40   1.372       .  A
C39          H42   1.082       .  S
C40          C41   1.385       .  A
C40          H43   1.082       .  S
C41         C117   1.487       .  S
N44          C48   1.360       .  A
N44          C45   1.357       .  A
N44          C86   1.441       .  S
C45         C166   1.475       .  S
C45          C46   1.382       .  A
C46          C47   1.371       .  A
C46          H49   1.082       .  S
C47          C48   1.383       .  A
C47          H50   1.082       .  S
C48          C97   1.481       .  S
Fe51         O57   2.061       .  S
Fe51         O64   2.064       .  S
Fe51         O56   2.070   1_565  S
Fe51        O379   2.064       .  S
Fe51        O374   1.974       .  S
Fe52         O55   2.070       .  S
Fe52         O59   2.072       .  S
Fe52         O63   2.063   1_565  S
Fe52         O68   2.060       .  S
Fe52         O62   1.976       .  S
Fe53         O71   2.066       .  S
Fe53         O58   2.072       .  S
Fe53        O377   2.067   1_455  S
Fe53        O366   2.080   1_455  S
Fe53         O62   1.972       .  S
O54        Fe365   2.080       .  S
O54          C61   1.273   1_565  A
O55          C69   1.270       .  A
O56          C61   1.272       .  A
O57          C60   1.267       .  A
O58          C70   1.272   1_565  A
O59          C72   1.271       .  A
C60         C126   1.477       .  S
C60          O65   1.268       .  A
C61          C77   1.488       .  S
O62        Fe363   1.974   1_455  S
O63          C66   1.268       .  A
O64         C378   1.267   1_565  A
O65        Fe365   2.067       .  S
C66         C237   1.478       .  S
C66         O376   1.267   1_445  A
O67        Fe363   2.064   1_455  S
O67          C72   1.271       .  A
O68          C70   1.269   1_565  A
C69         C146   1.485       .  S
C69          O71   1.269       .  A
C70         C106   1.480       .  S
C72         C297   1.478       .  S
C73          C74   1.407       .  A
C73          C78   1.401       .  A
C73          H83   1.083       .  S
C74          C79   1.488       .  S
C74          C75   1.404       .  A
C75          C76   1.401       .  A
C75          H80   1.083       .  S
C76          C77   1.408       .  A
C76          H81   1.083       .  S
C77          C78   1.407       .  A
C78          H82   1.083       .  S
C79          C84   1.404       .  A
C79          C88   1.409       .  A
C84          C85   1.398       .  A
C84          H89   1.083       .  S
C85          C86   1.404       .  A
C85          H90   1.083       .  S
C86          C87   1.403       .  A
C87          C88   1.404       .  A
C87          H91   1.083       .  S
C88          H92   1.083       .  S
C93          C94   1.410       .  A
C93          C98   1.402       .  A
C93         H103   1.083       .  S
C94          C99   1.487       .  S
C94          C95   1.403       .  A
C95          C96   1.392       .  A
C95         H100   1.083       .  S
C96          C97   1.405       .  A
C96         H101   1.083       .  S
C97          C98   1.403       .  A
C98         H102   1.082       .  S
C99         C104   1.405       .  A
C99         C108   1.408       .  A
C104        C105   1.397       .  A
C104        H109   1.083       .  S
C105        C106   1.407       .  A
C105        H110   1.083       .  S
C106        C107   1.404       .  A
C107        C108   1.398       .  A
C107        H111   1.083       .  S
C108        H112   1.083       .  S
C113        C114   1.403       .  A
C113        C118   1.399       .  A
C113        H123   1.083       .  S
C114        C119   1.478       .  S
C114        C115   1.402       .  A
C115        C116   1.396       .  A
C115        H120   1.083       .  S
C116        C117   1.406       .  A
C116        H121   1.083       .  S
C117        C118   1.407       .  A
C118        H122   1.081       .  S
C119        C124   1.402       .  A
C119        C128   1.405       .  A
C124        C125   1.398       .  A
C124        H129   1.083       .  S
C125        C126   1.407       .  A
C125        H130   1.083       .  S
C126        C127   1.404       .  A
C127        C128   1.398       .  A
C127        H131   1.083       .  S
C128        H132   1.083       .  S
C133        C134   1.411       .  A
C133        C138   1.402       .  A
C133        H143   1.082       .  S
C134        C139   1.493       .  S
C134        C135   1.407       .  A
C135        C136   1.396       .  A
C135        H140   1.082       .  S
C136        C137   1.402       .  A
C136        H141   1.083       .  S
C137        C138   1.401       .  A
C138        H142   1.081       .  S
C139        C144   1.406       .  A
C139        C148   1.409       .  A
C144        C145   1.399       .  A
C144        H149   1.082       .  S
C145        C146   1.407       .  A
C145        H150   1.083       .  S
C146        C147   1.405       .  A
C147        C148   1.399       .  A
C147        H151   1.083       .  S
C148        H152   1.082       .  S
C153        C154   1.403       .  A
C153        C158   1.400       .  A
C153        H163   1.083       .  S
C154        C159   1.479       .  S
C154        C155   1.405       .  A
C155        C156   1.397       .  A
C155        H160   1.083       .  S
C156        C157   1.404       .  A
C156        H161   1.083       .  S
C157        C158   1.408       .  A
C158        H162   1.083       .  S
C159        C164   1.404       .  A
C159        C168   1.404       .  A
C164        C165   1.398       .  A
C164        H169   1.083       .  S
C165        C166   1.403       .  A
C165        H170   1.084       .  S
C166        C167   1.404       .  A
C167        C168   1.399       .  A
C167        H171   1.083       .  S
C168        H172   1.083       .  S
C173        C174   1.407       .  A
C173        C178   1.396       .  A
C173        H183   1.083       .  S
C174        C179   1.484       .  S
C174        C175   1.405       .  A
C175        C176   1.400       .  A
C175        H180   1.083       .  S
C176        C177   1.407       .  A
C176        H181   1.083       .  S
C177        C178   1.403       .  A
C178        H182   1.083       .  S
C179        C184   1.405       .  A
C179        C188   1.407       .  A
C184        C185   1.397       .  A
C184        H189   1.083       .  S
C185        C186   1.402       .  A
C185        H190   1.083       .  S
C186        C187   1.401       .  A
C187        C188   1.399       .  A
C187        H191   1.083       .  S
C188        H192   1.083       .  S
C193        C194   1.405       .  A
C193        C198   1.397       .  A
C193        H203   1.083       .  S
C194        C199   1.480       .  S
C194        C195   1.405       .  A
C195        C196   1.397       .  A
C195        H200   1.083       .  S
C196        C197   1.402       .  A
C196        H201   1.082   1_556  S
C197        C198   1.402       .  A
C198        H202   1.083       .  S
C199        C204   1.405       .  A
C199        C208   1.402       .  A
C204        C205   1.399       .  A
C204        H209   1.083       .  S
C205        C206   1.406       .  A
C205        H210   1.083       .  S
C206        C207   1.407       .  A
C207        C208   1.396       .  A
C207        H211   1.083       .  S
C208        H212   1.083       .  S
C213        C214   1.409       .  A
C213        C530   1.402   1_556  A
C213        H223   1.082   1_556  S
C214        C219   1.487       .  S
C214        C215   1.405       .  A
C215        C216   1.395       .  A
C215        H220   1.083       .  S
C216        C529   1.401       .  A
C216        H221   1.083       .  S
C217        C218   1.400   1_556  A
C217        C528   1.401       .  A
C218        C525   1.402   1_454  A
C218        H222   1.082       .  S
C219        C224   1.405       .  A
C219        C228   1.406       .  A
C224        C225   1.400       .  A
C224        H229   1.083       .  S
C225        C226   1.409       .  A
C225        H230   1.083       .  S
C226        C227   1.405       .  A
C227        C228   1.397       .  A
C227        H231   1.083       .  S
C228        H232   1.083       .  S
C233        C238   1.399       .  A
C233        C546   1.403       .  A
C233        H243   1.083       .  S
C234        C239   1.479       .  S
C234        C235   1.405       .  A
C234        C545   1.403   1_455  A
C235        C236   1.397       .  A
C235        H240   1.083       .  S
C236        C237   1.404       .  A
C236        H241   1.083       .  S
C237        C550   1.407   1_455  A
C238        C549   1.407       .  A
C238        H242   1.083       .  S
C239        C244   1.404       .  A
C239        C248   1.405       .  A
C244        C245   1.396       .  A
C244        H561   1.083       .  S
C245        C246   1.402       .  A
C245        H562   1.083       .  S
C246        C247   1.403       .  A
C247        C248   1.399       .  A
C247        H251   1.083       .  S
C248        H252   1.083       .  S
H249        C556   1.083       .  S
H250        C557   1.083       .  S
C253        C254   1.411       .  A
C253        C258   1.401   1_556  A
C253        H263   1.082   1_556  S
C254        C259   1.494       .  S
C254        C255   1.407       .  A
C255        C256   1.397       .  A
C255        H260   1.082       .  S
C256        C257   1.401       .  A
C256        H261   1.083       .  S
C257        C258   1.400   1_556  A
C258        H262   1.082       .  S
C259        C264   1.406       .  A
C259        C268   1.409       .  A
C264        C265   1.398       .  A
C264        H269   1.082       .  S
C265        C266   1.407       .  A
C265        H270   1.083       .  S
C266        C267   1.404       .  A
C267        C268   1.400       .  A
C267        H271   1.083       .  S
C268        H272   1.082       .  S
C273        C274   1.401       .  A
C273        C278   1.396       .  A
C273        H283   1.083       .  S
C274        C279   1.472       .  S
C274        C275   1.404       .  A
C275        C276   1.397       .  A
C275        H280   1.083       .  S
C276        C277   1.404       .  A
C276        H281   1.083       .  S
C277        C278   1.406       .  A
C278        H282   1.083       .  S
C279        C284   1.402       .  A
C279        C288   1.401       .  A
C284        C285   1.397       .  A
C284        H289   1.083       .  S
C285        C286   1.405       .  A
C285        H290   1.081       .  S
C286        C287   1.406       .  A
C287        C288   1.395       .  A
C287        H291   1.083       .  S
C288        H292   1.084       .  S
C293        C294   1.404       .  A
C293        C298   1.400       .  A
C293        H303   1.083       .  S
C294        C299   1.482       .  S
C294        C607   1.406       .  A
C295        C296   1.396       .  A
C295        C606   1.406       .  A
C295        H300   1.083       .  S
C296        C609   1.404       .  A
C296        H301   1.083       .  S
C297        C298   1.406       .  A
C297        C608   1.404       .  A
C298        H302   1.083       .  S
C299        C304   1.405       .  A
C299        C620   1.405       .  A
C304        C305   1.397       .  A
C304        H309   1.083       .  S
C305        C306   1.401       .  A
C305        H310   1.084       .  S
C306        C619   1.402       .  A
C307        C308   1.398       .  A
C307        C618   1.402       .  A
C307        H311   1.083       .  S
C308        C611   1.405       .  A
C308        H312   1.083       .  S
N313        C314   1.354       .  A
N313        C569   1.438   1_554  S
C314        C618   1.469       .  S
C315        C316   1.371       .  A
C315        H318   1.082       .  S
C316        C317   1.384   1_554  A
C316        H319   1.082       .  S
C317        C598   1.481       .  S
N320        C324   1.354       .  A
N320        C321   1.352   1_556  A
N320        C529   1.436       .  S
C321        C558   1.472       .  S
C321        C322   1.383   1_554  A
C322        C323   1.374       .  A
C322        H325   1.082   1_556  S
C323        C324   1.381       .  A
C323        H326   1.082       .  S
C324        C509   1.474       .  S
Fe327       O343   2.066       .  S
Fe327       O333   2.058       .  S
Fe327       O340   2.065       .  S
Fe327       O332   2.067       .  S
Fe327       O338   1.976       .  S
Fe328       O331   2.073       .  S
Fe328       O335   2.067       .  S
Fe328       O339   2.067       .  S
Fe328       O344   2.059       .  S
Fe328       O338   1.976       .  S
Fe329       O347   2.059       .  S
Fe329       O334   2.069       .  S
Fe329       O341   2.064       .  S
Fe329       O330   2.069       .  S
Fe329       O338   1.976       .  S
O330        C337   1.270       .  A
O331        C345   1.270       .  A
O332        C337   1.271       .  A
O333        C336   1.267       .  A
O334        C346   1.271       .  A
O335        C348   1.269       .  A
C336        C589   1.474       .  S
C336        O341   1.269       .  A
C337        C538   1.486       .  S
O339        C342   1.270       .  A
O340        C342   1.268       .  A
C342        C469   1.480       .  S
O343        C348   1.271       .  A
O344        C346   1.269       .  A
C345        C578   1.485       .  S
C345        O347   1.267       .  A
C346        C518   1.481       .  S
C348        C489   1.480       .  S
N349        C353   1.360       .  A
N349        C350   1.355       .  A
N349        C449   1.439       .  S
C350        C498   1.470       .  S
C350        C351   1.380       .  A
C351        C352   1.372       .  A
C351        H354   1.082       .  S
C352        C353   1.385       .  A
C352        H355   1.082       .  S
C353        C429   1.487       .  S
N356        C360   1.360       .  A
N356        C357   1.357       .  A
N356        C398   1.441       .  S
C357        C478   1.475       .  S
C357        C358   1.382       .  A
C358        C359   1.371       .  A
C358        H361   1.082       .  S
C359        C360   1.383       .  A
C359        H362   1.082       .  S
C360        C409   1.481       .  S
Fe363       O369   2.061       .  S
Fe363       O376   2.064       .  S
Fe363       O368   2.070   1_565  S
Fe364       O367   2.070       .  S
Fe364       O371   2.072       .  S
Fe364       O375   2.063   1_565  S
Fe364       O380   2.060       .  S
Fe364       O374   1.976       .  S
Fe365       O383   2.066       .  S
Fe365       O370   2.072       .  S
Fe365       O374   1.972       .  S
O366        C373   1.273   1_565  A
O367        C381   1.270       .  A
O368        C373   1.272       .  A
O369        C372   1.267       .  A
O370        C382   1.272   1_565  A
O371        C384   1.271       .  A
C372        C438   1.477       .  S
C372        O377   1.268       .  A
C373        C389   1.488       .  S
O375        C378   1.268       .  A
C378        C549   1.478       .  S
O379        C384   1.271       .  A
O380        C382   1.269   1_565  A
C381        C458   1.485       .  S
C381        O383   1.269       .  A
C382        C418   1.480       .  S
C384        C609   1.478       .  S
C385        C386   1.407       .  A
C385        C390   1.401       .  A
C385        H395   1.083       .  S
C386        C391   1.488       .  S
C386        C387   1.404       .  A
C387        C388   1.401       .  A
C387        H392   1.083       .  S
C388        C389   1.408       .  A
C388        H393   1.083       .  S
C389        C390   1.407       .  A
C390        H394   1.083       .  S
C391        C396   1.404       .  A
C391        C400   1.409       .  A
C396        C397   1.398       .  A
C396        H401   1.083       .  S
C397        C398   1.404       .  A
C397        H402   1.083       .  S
C398        C399   1.403       .  A
C399        C400   1.404       .  A
C399        H403   1.083       .  S
C400        H404   1.083       .  S
C405        C406   1.410       .  A
C405        C410   1.402       .  A
C405        H415   1.083       .  S
C406        C411   1.487       .  S
C406        C407   1.403       .  A
C407        C408   1.392       .  A
C407        H412   1.083       .  S
C408        C409   1.405       .  A
C408        H413   1.083       .  S
C409        C410   1.403       .  A
C410        H414   1.082       .  S
C411        C416   1.405       .  A
C411        C420   1.408       .  A
C416        C417   1.397       .  A
C416        H421   1.083       .  S
C417        C418   1.407       .  A
C417        H422   1.083       .  S
C418        C419   1.404       .  A
C419        C420   1.398       .  A
C419        H423   1.083       .  S
C420        H424   1.083       .  S
C425        C426   1.403       .  A
C425        C430   1.399       .  A
C425        H435   1.083       .  S
C426        C431   1.478       .  S
C426        C427   1.402       .  A
C427        C428   1.396       .  A
C427        H432   1.083       .  S
C428        C429   1.406       .  A
C428        H433   1.083       .  S
C429        C430   1.407       .  A
C430        H434   1.081       .  S
C431        C436   1.402       .  A
C431        C440   1.405       .  A
C436        C437   1.398       .  A
C436        H441   1.083       .  S
C437        C438   1.407       .  A
C437        H442   1.083       .  S
C438        C439   1.404       .  A
C439        C440   1.398       .  A
C439        H443   1.083       .  S
C440        H444   1.083       .  S
C445        C446   1.411       .  A
C445        C450   1.402       .  A
C445        H455   1.082       .  S
C446        C451   1.493       .  S
C446        C447   1.407       .  A
C447        C448   1.396       .  A
C447        H452   1.082       .  S
C448        C449   1.402       .  A
C448        H453   1.083       .  S
C449        C450   1.401       .  A
C450        H454   1.081       .  S
C451        C456   1.406       .  A
C451        C460   1.409       .  A
C456        C457   1.399       .  A
C456        H461   1.082       .  S
C457        C458   1.407       .  A
C457        H462   1.083       .  S
C458        C459   1.405       .  A
C459        C460   1.399       .  A
C459        H463   1.083       .  S
C460        H464   1.082       .  S
C465        C466   1.403       .  A
C465        C470   1.400       .  A
C465        H475   1.083       .  S
C466        C471   1.479       .  S
C466        C467   1.405       .  A
C467        C468   1.397       .  A
C467        H472   1.083       .  S
C468        C469   1.404       .  A
C468        H473   1.083       .  S
C469        C470   1.408       .  A
C470        H474   1.083       .  S
C471        C476   1.404       .  A
C471        C480   1.404       .  A
C476        C477   1.398       .  A
C476        H481   1.083       .  S
C477        C478   1.403       .  A
C477        H482   1.084       .  S
C478        C479   1.404       .  A
C479        C480   1.399       .  A
C479        H483   1.083       .  S
C480        H484   1.083       .  S
C485        C486   1.407       .  A
C485        C490   1.396       .  A
C485        H495   1.083       .  S
C486        C491   1.484       .  S
C486        C487   1.405       .  A
C487        C488   1.400       .  A
C487        H492   1.083       .  S
C488        C489   1.407       .  A
C488        H493   1.083       .  S
C489        C490   1.403       .  A
C490        H494   1.083       .  S
C491        C496   1.405       .  A
C491        C500   1.407       .  A
C496        C497   1.397       .  A
C496        H501   1.083       .  S
C497        C498   1.402       .  A
C497        H502   1.083       .  S
C498        C499   1.401       .  A
C499        C500   1.399       .  A
C499        H503   1.083       .  S
C500        H504   1.083       .  S
C505        C506   1.405       .  A
C505        C510   1.397       .  A
C505        H515   1.083       .  S
C506        C511   1.480       .  S
C506        C507   1.405       .  A
C507        C508   1.397       .  A
C507        H512   1.083       .  S
C508        C509   1.402       .  A
C508        H513   1.082   1_556  S
C509        C510   1.402       .  A
C510        H514   1.083       .  S
C511        C516   1.405       .  A
C511        C520   1.402       .  A
C516        C517   1.399       .  A
C516        H521   1.083       .  S
C517        C518   1.406       .  A
C517        H522   1.083       .  S
C518        C519   1.407       .  A
C519        C520   1.396       .  A
C519        H523   1.083       .  S
C520        H524   1.083       .  S
C525        C526   1.409       .  A
C525        H535   1.082   1_556  S
C526        C531   1.487       .  S
C526        C527   1.405       .  A
C527        C528   1.395   1_655  A
C527        H532   1.083       .  S
C528        H533   1.083       .  S
C529        C530   1.400   1_556  A
C530        H534   1.082       .  S
C531        C536   1.405       .  A
C531        C540   1.406       .  A
C536        C537   1.400       .  A
C536        H541   1.083       .  S
C537        C538   1.409       .  A
C537        H542   1.083       .  S
C538        C539   1.405       .  A
C539        C540   1.397       .  A
C539        H543   1.083       .  S
C540        H544   1.083       .  S
C545        C550   1.399       .  A
C545        H555   1.083       .  S
C546        C551   1.479       .  S
C546        C547   1.405       .  A
C547        C548   1.397       .  A
C547        H552   1.083       .  S
C548        C549   1.404       .  A
C548        H553   1.083       .  S
C550        H554   1.083       .  S
C551        C556   1.404       .  A
C551        C560   1.405       .  A
C556        C557   1.396       .  A
C557        C558   1.402       .  A
C558        C559   1.403       .  A
C559        C560   1.399       .  A
C559        H563   1.083       .  S
C560        H564   1.083       .  S
C565        C566   1.411       .  A
C565        C570   1.401   1_556  A
C565        H575   1.082   1_556  S
C566        C571   1.494       .  S
C566        C567   1.407       .  A
C567        C568   1.397       .  A
C567        H572   1.082       .  S
C568        C569   1.401       .  A
C568        H573   1.083       .  S
C569        C570   1.400   1_556  A
C570        H574   1.082       .  S
C571        C576   1.406       .  A
C571        C580   1.409       .  A
C576        C577   1.398       .  A
C576        H581   1.082       .  S
C577        C578   1.407       .  A
C577        H582   1.083       .  S
C578        C579   1.404       .  A
C579        C580   1.400       .  A
C579        H583   1.083       .  S
C580        H584   1.082       .  S
C585        C586   1.401       .  A
C585        C590   1.396       .  A
C585        H595   1.083       .  S
C586        C591   1.472       .  S
C586        C587   1.404       .  A
C587        C588   1.397       .  A
C587        H592   1.083       .  S
C588        C589   1.404       .  A
C588        H593   1.083       .  S
C589        C590   1.406       .  A
C590        H594   1.083       .  S
C591        C596   1.402       .  A
C591        C600   1.401       .  A
C596        C597   1.397       .  A
C596        H601   1.083       .  S
C597        C598   1.405       .  A
C597        H602   1.081       .  S
C598        C599   1.406       .  A
C599        C600   1.395       .  A
C599        H603   1.083       .  S
C600        H604   1.084       .  S
C605        C606   1.404       .  A
C605        C610   1.400       .  A
C605        H615   1.083       .  S
C606        C611   1.482       .  S
C607        C608   1.396       .  A
C607        H612   1.083   1_455  S
C608        H613   1.083   1_455  S
C609        C610   1.406       .  A
C610        H614   1.083       .  S
C611        C616   1.405       .  A
C616        C617   1.397       .  A
C616        H621   1.083       .  S
C617        C618   1.401       .  A
C617        H622   1.084       .  S
C619        C620   1.398       .  A
C619        H623   1.083       .  S
C620        H624   1.083       .  S
