geometry optimzed in LAMMPS
_audit_creation_date              2020-12-01 
_audit_creation_method            'lammps2cif' 
_symmetry_space_group_name_H-M    'P1' 
_symmetry_Int_Tables_number       1 
_symmetry_cell_setting            triclinic 
loop_ 
_symmetry_equiv_pos_as_xyz 
  x,y,z 
_cell_length_a                    35.99807449 
_cell_length_b                    35.8492820369495 
_cell_length_c                    27.21064346500196 
_cell_angle_alpha                 89.89049972457194 
_cell_angle_beta                  90.5253064799959 
_cell_angle_gamma                 90.44498242930764 
loop_ 
_atom_site_label 
_atom_site_type_symbol 
_atom_site_fract_x 
_atom_site_fract_y 
_atom_site_fract_z 
_atom_site_charge 
Fe1        Fe  0.30385719  0.20119072  0.42249057     1.65800
Fe2        Fe  0.35102128  0.15832170  0.33100148     1.73200
Fe3        Fe  0.28772881  0.22552886  0.30343218     1.54400
O4          O  0.23599644  0.20961881  0.32987369    -0.81000
O5          O  0.37133539  0.19284332  0.27621019    -0.79300
O6          O  0.24730462  0.20330378  0.41023698    -0.83500
O7          O  0.30812099  0.25821772  0.42053464    -0.78400
O8          O  0.28411218  0.18281196  0.25227338    -0.80100
O9          O  0.39094463  0.18092055  0.37708729    -0.82900
C10         C  0.29667354  0.28220230  0.38990913     0.97900
C11         C  0.22501876  0.20461768  0.37374258     1.05300
O12         O  0.31405321  0.19492203  0.35233118    -1.11900
O13         O  0.33594239  0.11794213  0.38283020    -0.74300
O14         O  0.29715896  0.14515430  0.43357600    -0.77800
O15         O  0.28723953  0.27335124  0.34638383    -0.78500
C16         C  0.31310671  0.11624663  0.41817290     0.96800
O17         O  0.35958943  0.20035210  0.44257354    -0.76400
O18         O  0.31490160  0.13351325  0.28105476    -0.81600
C19         C  0.36556820  0.22560572  0.26030167     0.99400
C20         C  0.29412912  0.14900610  0.24909641     1.05300
O21         O  0.33715585  0.24389497  0.27329164    -0.77300
C22         C  0.38971776  0.19504108  0.41973617     1.03600
C23         C  0.25911930  0.03868456  0.99802308     0.80900
N24         N  0.26357980  0.04914828  0.04587257    -0.77400
C25         C  0.25335641  0.08368645  0.06122223     0.83400
N26         N  0.23833944  0.10798039  0.02848605    -0.77300
C27         C  0.23366329  0.09803350  0.98078159     0.83400
N28         N  0.24485006  0.06393561  0.96566804    -0.79100
C29         C  0.46623138  0.23933852  0.00581512     0.80900
N30         N  0.46326839  0.24255090  0.05548322    -0.77400
C31         C  0.43192032  0.25687811  0.07559746     0.83400
N32         N  0.40386767  0.26712377  0.04521094    -0.77300
C33         C  0.40611745  0.26376881  0.99579377     0.83400
N34         N  0.43757806  0.24970057  0.97594101    -0.79100
Fe35       Fe  0.31162593  0.81224366  0.92521517     1.65800
Fe36       Fe  0.34790596  0.85915039  0.82798039     1.73200
Fe37       Fe  0.28131324  0.79254338  0.80920268     1.54400
O38         O  0.29837187  0.74156169  0.83794282    -0.81000
O39         O  0.31124735  0.87631556  0.77393013    -0.79300
O40         O  0.30618734  0.75519167  0.91719154    -0.83500
O41         O  0.25491099  0.81661329  0.92807300    -0.78400
O42         O  0.32177420  0.78902249  0.75516482    -0.80100
O43         O  0.32572360  0.89916290  0.87324293    -0.82900
C44         C  0.23029689  0.80149232  0.90097057     0.97900
C45         C  0.30164689  0.73166456  0.88275878     1.05300
O46         O  0.31362150  0.82109478  0.85406822    -1.11900
O47         O  0.39100101  0.84677950  0.87693973    -0.74300
O48         O  0.36805021  0.80507594  0.92940220    -0.77800
O49         O  0.23637391  0.79129332  0.85703751    -0.78500
C50         C  0.39516173  0.82205070  0.90996914     0.96800
O51         O  0.31460168  0.86864599  0.94301266    -0.76400
O52         O  0.37123500  0.82278995  0.77867255    -0.81600
C53         C  0.27850973  0.86874856  0.75925244     0.99400
C54         C  0.35486133  0.80076917  0.74888080     1.05300
O55         O  0.26073718  0.84076434  0.77621777    -0.77300
C56         C  0.31504769  0.89842364  0.91756482     1.03600
C57         C  0.45655569  0.76840850  0.49323250     0.80900
N58         N  0.43084734  0.75260789  0.46256271    -0.77400
C59         C  0.39741512  0.74083440  0.47953848     0.83400
N60         N  0.38898729  0.74593854  0.52754767    -0.77300
C61         C  0.41394824  0.76227233  0.55854731     0.83400
N62         N  0.44763017  0.77339957  0.54130630    -0.79100
C63         C  0.26074759  0.97473211  0.50263528     0.80900
N64         N  0.25959122  0.96824057  0.55214776    -0.77400
C65         C  0.24685526  0.93508802  0.57024519     0.83400
N66         N  0.23628219  0.90834212  0.53790629    -0.77300
C67         C  0.23698941  0.91423933  0.48881270     0.83400
N68         N  0.24916766  0.94744458  0.47117570    -0.79100
Fe69       Fe  0.68325729  0.80270861  0.42516378     1.65800
Fe70       Fe  0.64456850  0.85106426  0.33114241     1.73200
Fe71       Fe  0.70469723  0.78066625  0.30830135     1.54400
O72         O  0.75205202  0.77676028  0.35310229    -0.81000
O73         O  0.61563444  0.81486844  0.28602783    -0.79300
O74         O  0.73998190  0.80778671  0.42198988    -0.83500
O75         O  0.68610467  0.74523915  0.41687830    -0.78400
O76         O  0.72742350  0.82703718  0.27501933    -0.80100
O77         O  0.60423145  0.84053962  0.38425153    -0.82900
C78         C  0.68286566  0.72171788  0.38208470     0.97900
C79         C  0.76213415  0.79082170  0.39407926     1.05300
O80         O  0.67756384  0.81155886  0.35477752    -1.11900
O81         O  0.67117429  0.89054904  0.37443869    -0.74300
O82         O  0.68156385  0.85903182  0.44368552    -0.77800
O83         O  0.68381080  0.73150033  0.33727729    -0.78500
C84         C  0.68087788  0.88939697  0.41944472     0.96800
O85         O  0.62712854  0.79610288  0.43304792    -0.76400
O86         O  0.67914733  0.86569162  0.27271785    -0.81600
C87         C  0.62820684  0.79205522  0.25485577     0.99400
C88         C  0.71020171  0.85452745  0.25641613     1.05300
O89         O  0.66135667  0.78007300  0.25720383    -0.77300
C90         C  0.60028093  0.81497251  0.41631707     1.03600
C91         C  0.74462197  0.96032613  0.00285082     0.80900
N92         N  0.76274461  0.93755509  0.97114703    -0.77400
C93         C  0.77719516  0.90473245  0.98691378     0.83400
N94         N  0.77278903  0.89464449  0.03447739    -0.77300
C95         C  0.75386777  0.91604855  0.06649374     0.83400
N96         N  0.73995283  0.94912248  0.05039130    -0.79100
C97         C  0.53498119  0.77209219  0.99124694     0.80900
N98         N  0.56479622  0.75925838  0.96591833    -0.77400
C99         C  0.59486113  0.74559668  0.99055090     0.83400
N100        N  0.59414206  0.74476100  0.04025088    -0.77300
C101        C  0.56537502  0.75824299  0.06615812     0.83400
N102        N  0.53563732  0.77217749  0.04133882    -0.79100
Fe103      Fe  0.68595425  0.18201117  0.93604019     1.65800
Fe104      Fe  0.64094969  0.13866315  0.84117614     1.73200
Fe105      Fe  0.70573798  0.20644537  0.81887908     1.54400
O106        O  0.69259423  0.25576156  0.85371393    -0.81000
O107        O  0.67257817  0.12267377  0.78159450    -0.79300
O108        O  0.69343913  0.23894840  0.93224441    -0.83500
O109        O  0.74258515  0.17463943  0.93019130    -0.78400
O110        O  0.66063744  0.21389631  0.77254880    -0.80100
O111        O  0.66628923  0.09709761  0.88195565    -0.82900
C112        C  0.76563900  0.18833798  0.89979010     0.97900
C113        C  0.69357925  0.26377707  0.89908850     1.05300
O114        O  0.67756210  0.17572453  0.86506949    -1.11900
O115        O  0.60233432  0.15101015  0.89567337    -0.74300
O116        O  0.63035835  0.19171096  0.94587754    -0.77800
O117        O  0.75486721  0.20241047  0.85918872    -0.78500
C118        C  0.60130999  0.17635604  0.92829900     0.96800
O119        O  0.68098546  0.12566146  0.95213718    -0.76400
O120        O  0.61407657  0.17652697  0.79602440    -0.81600
C121        C  0.70242389  0.13378878  0.76160208     0.99400
C122        C  0.62776382  0.20123610  0.76772135     1.05300
O123        O  0.72161644  0.16098290  0.77802831    -0.77300
C124        C  0.67891794  0.09667703  0.92563701     1.03600
C125        C  0.52891852  0.24409948  0.51121322     0.80900
N126        N  0.53689409  0.23798242  0.55952285    -0.77400
C127        C  0.57063087  0.24747941  0.57873244     0.83400
N128        N  0.59678404  0.26311494  0.54937710    -0.77300
C129        C  0.58940051  0.26944915  0.50103489     0.83400
N130        N  0.55564421  0.25949284  0.48223550    -0.79100
C131        C  0.73142969  0.02994486  0.50412394     0.80900
N132        N  0.75052123  0.05338106  0.47370980    -0.77400
C133        C  0.76346147  0.08672829  0.49080413     0.83400
N134        N  0.75670182  0.09621526  0.53798337    -0.77300
C135        C  0.73681139  0.07389539  0.56834663     0.83400
N136        N  0.72418355  0.04047614  0.55114690    -0.79100
Fe137      Fe  0.80850466  0.30729563  0.43567927     1.65800
Fe138      Fe  0.84833259  0.35345713  0.33883291     1.73200
Fe139      Fe  0.78157154  0.28650998  0.31818603     1.54400
O140        O  0.78727148  0.23676510  0.35762430    -0.81000
O141        O  0.81099850  0.37721369  0.29134655    -0.79300
O142        O  0.81226922  0.25011372  0.43012994    -0.83500
O143        O  0.75128921  0.30379697  0.43346864    -0.78400
O144        O  0.82626982  0.27163020  0.27543151    -0.80100
O145        O  0.83280657  0.39324457  0.38982364    -0.82900
C146        C  0.72592164  0.30166240  0.40086433     0.97900
C147        C  0.80011049  0.22647911  0.39918183     1.05300
O148        O  0.81284724  0.31570263  0.36406177    -1.11900
O149        O  0.89133399  0.33417921  0.38146785    -0.74300
O150        O  0.86533327  0.30830428  0.44737829    -0.77800
O151        O  0.73301299  0.29885733  0.35531112    -0.78500
C152        C  0.89348429  0.31754022  0.42233894     0.96800
O153        O  0.80266010  0.36345345  0.44963889    -0.76400
O154        O  0.86646789  0.31930694  0.28250422    -0.81600
C155        C  0.78651366  0.36313852  0.26325011     0.99400
C156        C  0.85466059  0.28990292  0.26122397     1.05300
O157        O  0.77219512  0.33107454  0.27052132    -0.77300
C158        C  0.81325459  0.39311121  0.42842187     1.03600
C159        C  0.95897886  0.26561930  0.00355864     0.80900
N160        N  0.94929719  0.27269692  0.05104164    -0.77400
C161        C  0.91622948  0.25985250  0.06852805     0.83400
N162        N  0.89352604  0.23986272  0.03840423    -0.77300
C163        C  0.90255909  0.23275010  0.99121331     0.83400
N164        N  0.93538386  0.24597315  0.97365090    -0.79100
C165        C  0.76476570  0.46032843  0.00050606     0.80900
N166        N  0.74763413  0.43449458  0.97136695    -0.77400
C167        C  0.73416167  0.40228953  0.99116966     0.83400
N168        N  0.73823235  0.39619829  0.04023102    -0.77300
C169        C  0.75515481  0.42184509  0.06954147     0.83400
N170        N  0.76860676  0.45387414  0.04951796    -0.79100
Fe171      Fe  0.18496642  0.30964023  0.92498061     1.65800
Fe172      Fe  0.14008488  0.35281636  0.83128044     1.73200
Fe173      Fe  0.21530158  0.29696302  0.80805113     1.54400
O174        O  0.26343620  0.30652337  0.84958496    -0.81000
O175        O  0.12467265  0.31874032  0.77296577    -0.79300
O176        O  0.24118214  0.30462054  0.92478680    -0.83500
O177        O  0.18044230  0.25268322  0.91323473    -0.78400
O178        O  0.22367038  0.34613855  0.76886758    -0.80100
O179        O  0.09919660  0.32686295  0.87318365    -0.82900
C180        C  0.19620840  0.23228409  0.88127904     0.97900
C181        C  0.26800829  0.30236611  0.89553632     1.05300
O182        O  0.18018649  0.31976625  0.85429509    -1.11900
O183        O  0.15254112  0.39240226  0.88534616    -0.74300
O184        O  0.19171214  0.36571200  0.93901571    -0.77800
O185        O  0.20992396  0.24522062  0.84165963    -0.78500
C186        C  0.17591897  0.39419660  0.92076701     0.96800
O187        O  0.12915213  0.31132736  0.94104958    -0.76400
O188        O  0.17443310  0.38187692  0.78428409    -0.81600
C189        C  0.14202650  0.29525508  0.74700284     0.99400
C190        C  0.20359708  0.37459130  0.76028740     1.05300
O191        O  0.17386277  0.28294086  0.75867704    -0.77300
C192        C  0.09922030  0.31467420  0.91696821     1.03600
C193        C  0.22521803  0.47440047  0.49974803     0.80900
N194        N  0.24185167  0.44837509  0.47135984    -0.77400
C195        C  0.25571322  0.41659093  0.49114704     0.83400
N196        N  0.25241702  0.41050808  0.54015620    -0.77300
C197        C  0.23587331  0.43611736  0.56918345     0.83400
N198        N  0.22197877  0.46787985  0.54885802    -0.79100
C199        C  0.03728638  0.26745392  0.48984050     0.80900
N200        N  0.05956302  0.24949904  0.45766841    -0.77400
C201        C  0.09341540  0.23717088  0.47227039     0.83400
N202        N  0.10479346  0.24297146  0.51934337    -0.77300
C203        C  0.08307286  0.26130336  0.55177530     0.83400
N204        N  0.04925391  0.27366273  0.53667798    -0.79100
Fe205      Fe  0.18567329  0.69527897  0.42305261     1.65800
Fe206      Fe  0.13316096  0.65814135  0.33048202     1.73200
Fe207      Fe  0.20113019  0.72228331  0.30431664     1.54400
O208        O  0.19667150  0.77156954  0.34419528    -0.81000
O209        O  0.16156432  0.63928531  0.26996278    -0.79300
O210        O  0.19487220  0.75140322  0.42149281    -0.83500
O211        O  0.24148873  0.68676690  0.41155265    -0.78400
O212        O  0.15377040  0.73628214  0.26453961    -0.80100
O213        O  0.15434192  0.61335429  0.36943916    -0.82900
C214        C  0.26349207  0.69940790  0.37910087     0.97900
C215        C  0.19896490  0.77715472  0.39022747     1.05300
O216        O  0.17350352  0.69187762  0.35240917    -1.11900
O217        O  0.09816224  0.67380502  0.38640388    -0.74300
O218        O  0.13150483  0.70600975  0.44106540    -0.77800
O219        O  0.25198509  0.71230466  0.33815771    -0.78500
C220        C  0.10058353  0.69493787  0.42367535     0.96800
O221        O  0.17959972  0.63913216  0.43628356    -0.76400
O222        O  0.10810840  0.69868006  0.28838819    -0.81600
C223        C  0.18997639  0.64934170  0.24590972     0.99400
C224        C  0.12008253  0.72537768  0.26219087     1.05300
O225        O  0.20975504  0.67749082  0.25778175    -0.77300
C226        C  0.17020704  0.61096677  0.41109184     1.03600
C227        C  0.03155076  0.73601702  0.99979677     0.80900
N228        N  0.03265564  0.73927358  0.04961651    -0.77400
C229        C  0.06294371  0.75416850  0.07267187     0.83400
N230        N  0.09233402  0.76501927  0.04509473    -0.77300
C231        C  0.09163406  0.76224926  0.99542609     0.83400
N232        N  0.06108490  0.74766423  0.97262345    -0.79100
C233        C  0.22016965  0.54117147  0.99254688     0.80900
N234        N  0.21279761  0.55201751  0.03936360    -0.77400
C235        C  0.22438410  0.58593588  0.05592697     0.83400
N236        N  0.24327464  0.60916806  0.02552715    -0.77300
C237        C  0.25064269  0.59897127  0.97858324     0.83400
N238        N  0.23888961  0.56497946  0.96216677    -0.79100
Fe239      Fe  0.81118189  0.68665072  0.92625017     1.65800
Fe240      Fe  0.85057747  0.64287806  0.83049941     1.73200
Fe241      Fe  0.78779002  0.71192273  0.81067142     1.54400
O242        O  0.74109882  0.71384762  0.85559765    -0.81000
O243        O  0.87806066  0.68176237  0.78815422    -0.79300
O244        O  0.75481402  0.67994752  0.92174827    -0.83500
O245        O  0.80610140  0.74401859  0.92161604    -0.78400
O246        O  0.76639913  0.66601782  0.77396699    -0.80100
O247        O  0.89099117  0.65235655  0.88505715    -0.82900
C248        C  0.80777313  0.76875454  0.88823251     0.97900
C249        C  0.73241609  0.69959069  0.89682005     1.05300
O250        O  0.81643022  0.68042902  0.85564995    -1.11900
O251        O  0.82480879  0.60115144  0.87068725    -0.74300
O252        O  0.81476798  0.63000046  0.94158595    -0.77800
O253        O  0.80734632  0.76055195  0.84285300    -0.78500
C254        C  0.81503981  0.60066254  0.91546034     0.96800
O255        O  0.86702625  0.69511724  0.93459304    -0.76400
O256        O  0.81635695  0.62962454  0.77059949    -0.81600
C257        C  0.86410909  0.70505553  0.75816715     0.99400
C258        C  0.78484211  0.63999680  0.75414101     1.05300
O259        O  0.83051760  0.71549110  0.76050429    -0.77300
C260        C  0.89445548  0.67783066  0.91732239     1.03600
C261        C  0.75443044  0.53485402  0.49778114     0.80900
N262        N  0.73485376  0.55681782  0.46598499    -0.77400
C263        C  0.72009814  0.58958365  0.48095650     0.83400
N264        N  0.72596647  0.60071358  0.52801218    -0.77300
C265        C  0.74614011  0.58009275  0.56026193     0.83400
N266        N  0.76007192  0.54696746  0.54479269    -0.79100
C267        C  0.96300173  0.74902251  0.50473548     0.80900
N268        N  0.95776916  0.74482121  0.55375664    -0.77400
C269        C  0.92431968  0.75245518  0.57375835     0.83400
N270        N  0.89603600  0.76383475  0.54423353    -0.77300
C271        C  0.90110924  0.76827030  0.49524289     0.83400
N272        N  0.93447718  0.76013128  0.47528894    -0.79100
C273        C  0.88672365  0.71932746  0.71666520    -0.04700
C274        C  0.88331407  0.75689319  0.70131593    -0.01800
C275        C  0.89786594  0.76845311  0.65581126     0.03200
C276        C  0.91641709  0.74275946  0.62563400    -0.04700
C277        C  0.92300369  0.70619492  0.64310362    -0.01800
C278        C  0.90796446  0.69441157  0.68826185     0.03200
C279        C  0.86433053  0.78365380  0.73199857     0.37900
C280        C  0.94294321  0.67962351  0.61322651     0.37900
C281        C  0.91189809  0.65570336  0.70314188     0.36300
C282        C  0.89334847  0.80677987  0.63969814     0.36300
N283        N  0.91500655  0.62480148  0.71477066    -0.38500
N284        N  0.88975714  0.83734330  0.62684391    -0.38500
N285        N  0.95893450  0.65826094  0.58981658    -0.38000
N286        N  0.84916741  0.80499641  0.75640644    -0.38000
C287        C  0.75433457  0.59503290  0.61106123    -0.04700
C288        C  0.75970169  0.57072948  0.65185152    -0.01800
C289        C  0.76873692  0.58521780  0.69897711     0.03200
C290        C  0.77134331  0.62409604  0.70653396    -0.04700
C291        C  0.76513878  0.64842927  0.66643126    -0.01800
C292        C  0.75721279  0.63419455  0.61912202     0.03200
C293        C  0.75524196  0.53072628  0.64609283     0.37900
C294        C  0.76904490  0.68852202  0.67301872     0.37900
C295        C  0.75392567  0.66054145  0.57866711     0.36300
C296        C  0.77497468  0.56004920  0.73999519     0.36300
N297        N  0.75127566  0.68183181  0.54681061    -0.38500
N298        N  0.78000127  0.53997001  0.77270270    -0.38500
N299        N  0.77210872  0.72046578  0.67792683    -0.38000
N300        N  0.75170718  0.49878897  0.64160715    -0.38000
C301        C  0.99824962  0.71951310  0.97544114    -0.04700
C302        C  0.97628716  0.74160064  0.94380702    -0.01800
C303        C  0.94398846  0.72652751  0.92176711     0.03200
C304        C  0.93188903  0.69010366  0.93386975    -0.04700
C305        C  0.95383646  0.66777362  0.96521196    -0.01800
C306        C  0.98743630  0.68216978  0.98510089     0.03200
C307        C  0.98513293  0.78075926  0.93690320     0.37900
C308        C  0.94103620  0.63070324  0.97856622     0.37900
C309        C  0.01091510  0.65853374  0.01530070     0.36300
C310        C  0.92287491  0.74873044  0.88677850     0.36300
N311        N  0.02971728  0.63957500  0.03918575    -0.38500
N312        N  0.90612434  0.76636915  0.85877994    -0.38500
N313        N  0.93058694  0.60123430  0.98942643    -0.38000
N314        N  0.99130126  0.81225053  0.93199877    -0.38000
C315        C  0.09495364  0.74183176  0.22349225    -0.04700
C316        C  0.10574909  0.77432289  0.19746294    -0.01800
C317        C  0.09121327  0.78119277  0.15001294     0.03200
C318        C  0.06662158  0.75515230  0.12762341    -0.04700
C319        C  0.04961852  0.72789489  0.15794696    -0.01800
C320        C  0.06313927  0.72192175  0.20625207     0.03200
C321        C  0.13195639  0.80069736  0.21896663     0.37900
C322        C  0.01909954  0.70498540  0.13980828     0.37900
C323        C  0.04467546  0.69449334  0.23707957     0.36300
C324        C  0.10158864  0.81518069  0.12430011     0.36300
N325        N  0.02975273  0.67269786  0.26153557    -0.38500
N326        N  0.10965783  0.84238176  0.10391495    -0.38500
N327        N  0.99442776  0.68669426  0.12631213    -0.38000
N328        N  0.15285390  0.82193267  0.23571490    -0.38000
C329        C  0.21512590  0.59856788  0.10618647    -0.04700
C330        C  0.24321776  0.60225097  0.14242391    -0.01800
C331        C  0.23518392  0.61822237  0.18855562     0.03200
C332        C  0.19852832  0.62909272  0.19958668    -0.04700
C333        C  0.17001706  0.62335933  0.16399004    -0.01800
C334        C  0.17852286  0.60920305  0.11712819     0.03200
C335        C  0.28035457  0.58908734  0.13246695     0.37900
C336        C  0.13195076  0.63352121  0.17438658     0.37900
C337        C  0.14996247  0.60805024  0.07914652     0.36300
C338        C  0.26468713  0.62316933  0.22464329     0.36300
N339        N  0.12704734  0.60801697  0.04903629    -0.38500
N340        N  0.28846318  0.62719406  0.25310087    -0.38500
N341        N  0.10141848  0.64107319  0.18239087    -0.38000
N342        N  0.30992137  0.57814109  0.12503777    -0.38000
C343        C  0.06563183  0.70844750  0.44632000    -0.04700
C344        C  0.03411303  0.68465375  0.44949118    -0.01800
C345        C  0.00032135  0.69839169  0.46752921     0.03200
C346        C  0.99776152  0.73575969  0.48297457    -0.04700
C347        C  0.02873577  0.75969699  0.47969191    -0.01800
C348        C  0.06265066  0.74619215  0.46161153     0.03200
C349        C  0.03635634  0.64574837  0.43521887     0.37900
C350        C  0.02532466  0.79853921  0.49384134     0.37900
C351        C  0.09388025  0.77180768  0.45741752     0.36300
C352        C  0.96795790  0.67406542  0.46995421     0.36300
N353        N  0.11862586  0.79246585  0.45450040    -0.38500
N354        N  0.94216059  0.65466398  0.47170277    -0.38500
N355        N  0.02247163  0.82955762  0.50478824    -0.38000
N356        N  0.03793576  0.61473666  0.42373730    -0.38000
C357        C  0.20983681  0.50897216  0.47630061    -0.04700
C358        C  0.22831986  0.52557439  0.43571457    -0.01800
C359        C  0.21353562  0.55738620  0.41242631     0.03200
C360        C  0.18113120  0.57406121  0.43035978    -0.04700
C361        C  0.16259662  0.55809099  0.47064618    -0.01800
C362        C  0.17640984  0.52534573  0.49308925     0.03200
C363        C  0.26377491  0.51151646  0.41912303     0.37900
C364        C  0.12927924  0.57558938  0.48909253     0.37900
C365        C  0.15553184  0.50876227  0.53295627     0.36300
C366        C  0.23267310  0.57415950  0.37107162     0.36300
N367        N  0.13826702  0.49636506  0.56480158    -0.38500
N368        N  0.24787580  0.58773363  0.33823742    -0.38500
N369        N  0.10277120  0.58957775  0.50389006    -0.38000
N370        N  0.29208494  0.50050447  0.40578999    -0.38000
C371        C  0.09756756  0.26980401  0.60220450    -0.04700
C372        C  0.13500898  0.28131779  0.60860927    -0.01800
C373        C  0.14942533  0.28845655  0.65597890     0.03200
C374        C  0.12658602  0.28468452  0.69791949    -0.04700
C375        C  0.08898630  0.27411766  0.69161557    -0.01800
C376        C  0.07452061  0.26664373  0.64404046     0.03200
C377        C  0.15860843  0.28780181  0.56629098     0.37900
C378        C  0.06536868  0.27011829  0.73423226     0.37900
C379        C  0.03599721  0.25513224  0.63853451     0.36300
C380        C  0.18762978  0.30150277  0.66079842     0.36300
N381        N  0.00519435  0.24614967  0.63419133    -0.38500
N382        N  0.21811157  0.31180124  0.66386860    -0.38500
N383        N  0.04659756  0.26692940  0.76831484    -0.38000
N384        N  0.17749242  0.29299649  0.53271223    -0.38000
C385        C  0.22723811  0.42600270  0.62065182    -0.04700
C386        C  0.25551182  0.42404891  0.65683442    -0.01800
C387        C  0.24762300  0.40952126  0.70404577     0.03200
C388        C  0.21130284  0.39730106  0.71548501    -0.04700
C389        C  0.18259259  0.40147006  0.67977560    -0.01800
C390        C  0.19082406  0.41465528  0.63230352     0.03200
C391        C  0.29289139  0.43620901  0.64507111     0.37900
C392        C  0.14471311  0.38987717  0.69020224     0.37900
C393        C  0.16244646  0.41309881  0.59402638     0.36300
C394        C  0.27676053  0.40761312  0.74095717     0.36300
N395        N  0.13994537  0.41115486  0.56346233    -0.38500
N396        N  0.30015879  0.40656338  0.77032930    -0.38500
N397        N  0.11432549  0.38103470  0.69788770    -0.38000
N398        N  0.32274002  0.44595018  0.63578572    -0.38000
C399        C  0.20862307  0.50318423  0.97498108    -0.04700
C400        C  0.23392266  0.48087753  0.94862425    -0.01800
C401        C  0.22306547  0.44529694  0.93124124     0.03200
C402        C  0.18688757  0.43145710  0.93995473    -0.04700
C403        C  0.16170542  0.45320034  0.96661979    -0.01800
C404        C  0.17259653  0.48865186  0.98469802     0.03200
C405        C  0.27181268  0.49364873  0.94112069     0.37900
C406        C  0.12468110  0.43871835  0.97605273     0.37900
C407        C  0.14629623  0.50982084  0.01313530     0.36300
C408        C  0.24904635  0.42302385  0.90349328     0.36300
N409        N  0.12479132  0.52574166  0.03624831    -0.38500
N410        N  0.26965603  0.40517899  0.88136843    -0.38500
N411        N  0.09517446  0.42708276  0.98346630    -0.38000
N412        N  0.30207400  0.50374186  0.93527529    -0.38000
C413        C  0.77824506  0.49599240  0.97933018    -0.04700
C414        C  0.81080187  0.49732239  0.95089019    -0.01800
C415        C  0.82302731  0.53145164  0.93022629     0.03200
C416        C  0.80289912  0.56465872  0.93826939    -0.04700
C417        C  0.77079597  0.56320632  0.96819096    -0.01800
C418        C  0.75865311  0.52904286  0.98850267     0.03200
C419        C  0.83268089  0.46388207  0.94477280     0.37900
C420        C  0.74929075  0.59644237  0.97762701     0.37900
C421        C  0.72558999  0.52775473  0.01869486     0.36300
C422        C  0.85725535  0.53256577  0.90250424     0.36300
N423        N  0.69931855  0.52661852  0.04286874    -0.38500
N424        N  0.88462141  0.53350376  0.88052259    -0.38500
N425        N  0.73149324  0.62230903  0.98629376    -0.38000
N426        N  0.85049669  0.43739537  0.94025752    -0.38000
C427        C  0.06331396  0.30332800  0.94113955    -0.04700
C428        C  0.02974536  0.32236109  0.93047024    -0.01800
C429        C  0.99588349  0.31058420  0.95184951     0.03200
C430        C  0.99493322  0.27961766  0.98389139    -0.04700
C431        C  0.02826831  0.26140777  0.99617786    -0.01800
C432        C  0.06230414  0.27334920  0.97560436     0.03200
C433        C  0.03005497  0.35526291  0.89937046     0.37900
C434        C  0.02738908  0.22966329  0.02938060     0.37900
C435        C  0.09603961  0.25424331  0.99029422     0.36300
C436        C  0.96200736  0.33105871  0.94202341     0.36300
N437        N  0.12279863  0.23911740  0.00284706    -0.38500
N438        N  0.93503020  0.34756436  0.93455368    -0.38500
N439        N  0.02668836  0.20427968  0.05570867    -0.38000
N440        N  0.03026957  0.38163609  0.87477151    -0.38000
C441        C  0.87129547  0.27988254  0.21324753    -0.04700
C442        C  0.90940790  0.27162091  0.20851235    -0.01800
C443        C  0.92473268  0.26543553  0.16134644     0.03200
C444        C  0.90242368  0.26951932  0.11853655    -0.04700
C445        C  0.86484704  0.28011623  0.12363049    -0.01800
C446        C  0.84901543  0.28331125  0.17044508     0.03200
C447        C  0.93245756  0.26822765  0.25222878     0.37900
C448        C  0.84248964  0.28954182  0.08063907     0.37900
C449        C  0.80948045  0.29057998  0.17393877     0.36300
C450        C  0.96304648  0.25388946  0.15715713     0.36300
N451        N  0.77780984  0.29568267  0.17543585    -0.38500
N452        N  0.99364055  0.24459044  0.15397350    -0.38500
N453        N  0.82462354  0.29738153  0.04662933    -0.38000
N454        N  0.95086678  0.26547954  0.28712489    -0.38000
C455        C  0.76297273  0.41236234  0.12166740    -0.04700
C456        C  0.79994555  0.40657088  0.13713328    -0.01800
C457        C  0.80747224  0.39250293  0.18454073     0.03200
C458        C  0.77792288  0.38318677  0.21665952    -0.04700
C459        C  0.74100491  0.39009326  0.20164423    -0.01800
C460        C  0.73365854  0.40554229  0.15473581     0.03200
C461        C  0.83029850  0.41331447  0.10332769     0.37900
C462        C  0.71062122  0.38135600  0.23440463     0.37900
C463        C  0.69611356  0.41589831  0.14126485     0.36300
C464        C  0.84580737  0.38550043  0.19865126     0.36300
N465        N  0.66619542  0.42497034  0.13134196    -0.38500
N466        N  0.87654419  0.38022389  0.20919065    -0.38500
N467        N  0.68632562  0.37425467  0.26045094    -0.38000
N468        N  0.85446525  0.41864083  0.07637479    -0.38000
C469        C  0.79898857  0.42915282  0.44675105    -0.04700
C470        C  0.81631214  0.44799782  0.48612372    -0.01800
C471        C  0.80244171  0.48266056  0.50240838     0.03200
C472        C  0.76968246  0.49800607  0.48087272    -0.04700
C473        C  0.75146179  0.47760217  0.44270821    -0.01800
C474        C  0.76656948  0.44399318  0.42519330     0.03200
C475        C  0.84823642  0.43140894  0.51030180     0.37900
C476        C  0.71619874  0.48988223  0.42229700     0.37900
C477        C  0.74801780  0.42388225  0.38553938     0.36300
C478        C  0.82286107  0.50253228  0.54052867     0.36300
N479        N  0.73321344  0.40775300  0.35410369    -0.38500
N480        N  0.83933938  0.51816995  0.57097091    -0.38500
N481        N  0.68805326  0.49944520  0.40588451    -0.38000
N482        N  0.87340622  0.41805026  0.53014603    -0.38000
C483        C  0.93041073  0.30553472  0.43966244    -0.04700
C484        C  0.95574433  0.33106221  0.46100739    -0.01800
C485        C  0.99060477  0.31858779  0.47825283     0.03200
C486        C  0.00034200  0.28062305  0.47336332    -0.04700
C487        C  0.97524366  0.25542108  0.45058831    -0.01800
C488        C  0.94070587  0.26803880  0.43297209     0.03200
C489        C  0.94655181  0.37031199  0.46340747     0.37900
C490        C  0.98450051  0.21624131  0.44622175     0.37900
C491        C  0.91653527  0.24293388  0.40538162     0.36300
C492        C  0.01690607  0.34507705  0.49935508     0.36300
N493        N  0.89746614  0.22316885  0.38273226    -0.38500
N494        N  0.03791665  0.36617603  0.51617677    -0.38500
N495        N  0.99182306  0.18497769  0.44288159    -0.38000
N496        N  0.93967544  0.40176997  0.46466052    -0.38000
C497        C  0.78108948  0.11549287  0.45836596    -0.04700
C498        C  0.76503146  0.12534599  0.41265514    -0.01800
C499        C  0.77397057  0.16000957  0.39030535     0.03200
C500        C  0.79861329  0.18570972  0.41407874    -0.04700
C501        C  0.81883386  0.17277176  0.45590925    -0.01800
C502        C  0.81024132  0.13789332  0.47743343     0.03200
C503        C  0.73770129  0.10091198  0.38963795     0.37900
C504        C  0.84815562  0.19521701  0.47822454     0.37900
C505        C  0.83111045  0.12521507  0.52019511     0.36300
C506        C  0.75644754  0.16914671  0.34365804     0.36300
N507        N  0.84774653  0.11506246  0.55420840    -0.38500
N508        N  0.74256249  0.17595886  0.30620813    -0.38500
N509        N  0.87145872  0.21269182  0.49690523    -0.38000
N510        N  0.71607026  0.08144690  0.37088057    -0.38000
C511        C  0.61966013  0.28333857  0.46841966    -0.04700
C512        C  0.64198534  0.31405601  0.48294365    -0.01800
C513        C  0.67537088  0.32223542  0.45813459     0.03200
C514        C  0.68664092  0.29997660  0.41811390    -0.04700
C515        C  0.66187190  0.27235050  0.39973498    -0.01800
C516        C  0.62864654  0.26393821  0.42491134     0.03200
C517        C  0.63038294  0.33772532  0.52305039     0.37900
C518        C  0.67140032  0.25079464  0.35665696     0.37900
C519        C  0.60501896  0.23367500  0.40746021     0.36300
C520        C  0.69819206  0.35358386  0.47409929     0.36300
N521        N  0.58613622  0.20961638  0.39340478    -0.38500
N522        N  0.71619021  0.37863375  0.48710444    -0.38500
N523        N  0.67870884  0.23369507  0.32209358    -0.38000
N524        N  0.62124413  0.35712736  0.55456659    -0.38000
C525        C  0.80620946  0.19090534  0.91422621    -0.04700
C526        C  0.81979458  0.17203308  0.95657467    -0.01800
C527        C  0.85367024  0.18322711  0.97881993     0.03200
C528        C  0.87440226  0.21340358  0.95940618    -0.04700
C529        C  0.86424986  0.22781500  0.91290677    -0.01800
C530        C  0.83086557  0.21589985  0.88974456     0.03200
C531        C  0.79924257  0.14102264  0.97775191     0.37900
C532        C  0.88677256  0.25651727  0.88982943     0.37900
C533        C  0.82238001  0.22988857  0.84087341     0.36300
C534        C  0.86706077  0.16386143  0.02235092     0.36300
N535        N  0.81619148  0.24072992  0.80157454    -0.38500
N536        N  0.87780206  0.14838899  0.05697093    -0.38500
N537        N  0.90452099  0.27931826  0.87085629    -0.38000
N538        N  0.78302628  0.11627990  0.99487489    -0.38000
C539        C  0.69753056  0.30335874  0.91493576    -0.04700
C540        C  0.72486795  0.32664409  0.89341957    -0.01800
C541        C  0.73529826  0.36062023  0.91612231     0.03200
C542        C  0.71777177  0.37210022  0.95987187    -0.04700
C543        C  0.68711352  0.35121344  0.97727169    -0.01800
C544        C  0.67788276  0.31647123  0.95614481     0.03200
C545        C  0.74466099  0.31439782  0.85019166     0.37900
C546        C  0.66456762  0.36551181  0.01679671     0.37900
C547        C  0.64909414  0.29373409  0.97857072     0.36300
C548        C  0.76564466  0.38225694  0.89565244     0.36300
N549        N  0.62648114  0.27590633  0.99765838    -0.38500
N550        N  0.78978732  0.39912641  0.87845161    -0.38500
N551        N  0.64577350  0.37654445  0.04770912    -0.38000
N552        N  0.76044318  0.30483983  0.81563021    -0.38000
C553        C  0.71267458  0.11755818  0.71343040    -0.04700
C554        C  0.71700358  0.07877899  0.70696436    -0.01800
C555        C  0.72450317  0.06408380  0.65976020     0.03200
C556        C  0.72690882  0.08811137  0.61834120    -0.04700
C557        C  0.72048344  0.12683184  0.62494360    -0.01800
C558        C  0.71417169  0.14139498  0.67207844     0.03200
C559        C  0.71435348  0.05407687  0.74908600     0.37900
C560        C  0.71844566  0.15206782  0.58308390     0.37900
C561        C  0.70754687  0.18115429  0.67728310     0.36300
C562        C  0.73017927  0.02431114  0.65437948     0.36300
N563        N  0.70245440  0.21288761  0.68050365    -0.38500
N564        N  0.73448696  0.99251246  0.65025339    -0.38500
N565        N  0.71684297  0.17232319  0.54995849    -0.38000
N566        N  0.71215655  0.03436118  0.78268317    -0.38000
C567        C  0.58082547  0.23592963  0.62941990    -0.04700
C568        C  0.58896326  0.26278364  0.66589744    -0.01800
C569        C  0.60234766  0.25151102  0.71254457     0.03200
C570        C  0.60651498  0.21322481  0.72353236    -0.04700
C571        C  0.59686263  0.18630513  0.68755092    -0.01800
C572        C  0.58504087  0.19767187  0.64034289     0.03200
C573        C  0.58415001  0.30207943  0.65523940     0.37900
C574        C  0.60195043  0.14685366  0.69756139     0.37900
C575        C  0.58062006  0.17009580  0.60167784     0.36300
C576        C  0.61275334  0.27937685  0.74881855     0.36300
N577        N  0.57765812  0.14809953  0.57077942    -0.38500
N578        N  0.62130032  0.30171717  0.77749671    -0.38500
N579        N  0.60592623  0.11536976  0.70528545    -0.38000
N580        N  0.58021527  0.33351480  0.64722420    -0.38000
C581        C  0.62985407  0.73416136  0.96489609    -0.04700
C582        C  0.66473834  0.73767231  0.98975204    -0.01800
C583        C  0.69756017  0.72527068  0.96766004     0.03200
C584        C  0.69668544  0.70986271  0.91992561    -0.04700
C585        C  0.66255065  0.70714317  0.89431135    -0.01800
C586        C  0.62927038  0.71923210  0.91651010     0.03200
C587        C  0.66788503  0.75533908  0.03771530     0.37900
C588        C  0.66155548  0.69069962  0.84564600     0.37900
C589        C  0.59466682  0.71578345  0.88918787     0.36300
C590        C  0.73270457  0.72971846  0.99398898     0.36300
N591        N  0.56731312  0.71318470  0.86673412    -0.38500
N592        N  0.76053009  0.73314134  0.01521911    -0.38500
N593        N  0.66085988  0.67740633  0.80691862    -0.38000
N594        N  0.67040459  0.76910189  0.07606317    -0.38000
C595        C  0.69487973  0.06164635  0.94543234    -0.04700
C596        C  0.67707913  0.04139884  0.98299463    -0.01800
C597        C  0.69291921  0.00819606  0.00151355     0.03200
C598        C  0.72795783  0.99598727  0.98445440    -0.04700
C599        C  0.74666928  0.01778121  0.94863159    -0.01800
C600        C  0.72984036  0.04991114  0.92861306     0.03200
C601        C  0.64256380  0.05484882  0.00308126     0.37900
C602        C  0.78406036  0.00840784  0.93373144     0.37900
C603        C  0.74930072  0.07199950  0.89198616     0.36300
C604        C  0.67227218  0.98626617  0.03705574     0.36300
N605        N  0.76474116  0.08979639  0.86298125    -0.38500
N606        N  0.65574262  0.96881849  0.06537041    -0.38500
N607        N  0.81395671  0.00117989  0.92190472    -0.38000
N608        N  0.61529401  0.06539440  0.02016320    -0.38000
C609        C  0.79287099  0.87677700  0.95235536    -0.04700
C610        C  0.82245484  0.85399432  0.96856429    -0.01800
C611        C  0.82939256  0.81971484  0.94526904     0.03200
C612        C  0.80784226  0.80852111  0.90407441    -0.04700
C613        C  0.78202691  0.83386025  0.88346988    -0.01800
C614        C  0.77429296  0.86774946  0.90776218     0.03200
C615        C  0.84504422  0.86520629  0.01057492     0.37900
C616        C  0.76077801  0.82369078  0.83985268     0.37900
C617        C  0.74498934  0.89148087  0.88880876     0.36300
C618        C  0.85760527  0.79524155  0.96551464     0.36300
N619        N  0.72157310  0.91031494  0.87356028    -0.38500
N620        N  0.87988960  0.77593262  0.98258974    -0.38500
N621        N  0.74382450  0.81560397  0.80507861    -0.38000
N622        N  0.86304255  0.87410809  0.04406657    -0.38000
C623        C  0.80033647  0.78448611  0.41266482    -0.04700
C624        C  0.82593201  0.81434286  0.41767894    -0.01800
C625        C  0.86002092  0.80887187  0.44284945     0.03200
C626        C  0.86823482  0.77370308  0.46336997    -0.04700
C627        C  0.84332509  0.74362351  0.45670779    -0.01800
C628        C  0.80959738  0.74898469  0.43140388     0.03200
C629        C  0.81687072  0.85070372  0.39771231     0.37900
C630        C  0.85179124  0.70726019  0.47755531     0.37900
C631        C  0.78356898  0.71817950  0.42782888     0.36300
C632        C  0.88599173  0.83959375  0.44934080     0.36300
N633        N  0.76369625  0.69276794  0.42640101    -0.38500
N634        N  0.90683637  0.86402463  0.45464306    -0.38500
N635        N  0.85824536  0.67831374  0.49433586    -0.38000
N636        N  0.80960615  0.87972853  0.38177883    -0.38000
C637        C  0.68035842  0.68139576  0.39589105    -0.04700
C638        C  0.70233805  0.65432393  0.37216687    -0.01800
C639        C  0.71252801  0.62133472  0.39759665     0.03200
C640        C  0.70015789  0.61529440  0.44633758    -0.04700
C641        C  0.67164625  0.63828522  0.46456858    -0.01800
C642        C  0.66184660  0.67121862  0.43947338     0.03200
C643        C  0.71772118  0.66189852  0.32404583     0.37900
C644        C  0.65296173  0.62859786  0.50992254     0.37900
C645        C  0.63342504  0.69527932  0.45928006     0.36300
C646        C  0.73782973  0.59545276  0.37475088     0.36300
N647        N  0.61065869  0.71434879  0.47505194    -0.38500
N648        N  0.75784842  0.57478568  0.35617597    -0.38500
N649        N  0.63809294  0.62083883  0.54609776    -0.38000
N650        N  0.73000598  0.66776939  0.28561255    -0.38000
C651        C  0.72454706  0.87087727  0.20988908    -0.04700
C652        C  0.72939713  0.84705955  0.16918623    -0.01800
C653        C  0.73884397  0.86175381  0.12288808     0.03200
C654        C  0.74475633  0.90075451  0.11652418    -0.04700
C655        C  0.74111442  0.92444971  0.15794199    -0.01800
C656        C  0.73052691  0.90959898  0.20416242     0.03200
C657        C  0.72309577  0.80709963  0.17415334     0.37900
C658        C  0.74925754  0.96399512  0.15367341     0.37900
C659        C  0.72666279  0.93402569  0.24618998     0.36300
C660        C  0.74079290  0.83620793  0.08160267     0.36300
N661        N  0.72367632  0.95350562  0.27977506    -0.38500
N662        N  0.74258036  0.81587846  0.04873190    -0.38500
N663        N  0.75588140  0.99553539  0.15030637    -0.38000
N664        N  0.71834085  0.77525154  0.17779119    -0.38000
C665        C  0.57047812  0.76239781  0.12048603    -0.04700
C666        C  0.56236257  0.79648049  0.14401917    -0.01800
C667        C  0.58000227  0.80580160  0.18901481     0.03200
C668        C  0.60416967  0.78012267  0.21251327    -0.04700
C669        C  0.60756549  0.74390485  0.19253508    -0.01800
C670        C  0.59095559  0.73517374  0.14678093     0.03200
C671        C  0.53715033  0.82293979  0.12147641     0.37900
C672        C  0.62887079  0.71564887  0.21837493     0.37900
C673        C  0.59569260  0.69817567  0.12622578     0.36300
C674        C  0.57559598  0.84319790  0.20841603     0.36300
N675        N  0.59962512  0.66870578  0.10987266    -0.38500
N676        N  0.57220496  0.87313258  0.22350053    -0.38500
N677        N  0.64593578  0.69310408  0.23881123    -0.38000
N678        N  0.51653990  0.84416468  0.10471827    -0.38000
C679        C  0.69224066  0.92488817  0.44451543    -0.04700
C680        C  0.67186803  0.95804344  0.43644848    -0.01800
C681        C  0.68451560  0.99228258  0.45638709     0.03200
C682        C  0.71715841  0.99367869  0.48536148    -0.04700
C683        C  0.73612656  0.96041045  0.49638324    -0.01800
C684        C  0.72401105  0.92619048  0.47579402     0.03200
C685        C  0.63692190  0.95675701  0.40949619     0.37900
C686        C  0.76836658  0.96147546  0.52878700     0.37900
C687        C  0.74507363  0.89270171  0.48615556     0.36300
C688        C  0.66343731  0.02607952  0.44813207     0.36300
N689        N  0.76209769  0.86625699  0.49513192    -0.38500
N690        N  0.64659187  0.05306452  0.44185940    -0.38500
N691        N  0.79392700  0.96225510  0.55488447    -0.38000
N692        N  0.60887815  0.95566404  0.38838731    -0.38000
C693        C  0.23053047  0.88197689  0.45606566    -0.04700
C694        C  0.25181575  0.84976248  0.46431688    -0.01800
C695        C  0.24105506  0.81579069  0.44299384     0.03200
C696        C  0.21048513  0.81412676  0.40978335    -0.04700
C697        C  0.19088274  0.84709352  0.39841071    -0.01800
C698        C  0.20076969  0.88102837  0.42191667     0.03200
C699        C  0.28469604  0.85138254  0.49580167     0.37900
C700        C  0.15848318  0.84542385  0.36649360     0.37900
C701        C  0.17926638  0.91440389  0.41297730     0.36300
C702        C  0.26030181  0.78228621  0.45858162     0.36300
N703        N  0.16216184  0.94110885  0.40586847    -0.38500
N704        N  0.27534486  0.75613290  0.47342412    -0.38500
N705        N  0.13223121  0.84413633  0.34167583    -0.38000
N706        N  0.31087443  0.85261993  0.52077468    -0.38000
C707        C  0.49361378  0.78094065  0.47350997    -0.04700
C708        C  0.50944332  0.76250711  0.43246995    -0.01800
C709        C  0.54331011  0.77515291  0.41244058     0.03200
C710        C  0.56266517  0.80533543  0.43394370    -0.04700
C711        C  0.54770247  0.82359771  0.47479468    -0.01800
C712        C  0.51338261  0.81170023  0.49456764     0.03200
C713        C  0.49226945  0.72920409  0.41174662     0.37900
C714        C  0.56796575  0.85468001  0.49663990     0.37900
C715        C  0.49907656  0.83156501  0.53660031     0.36300
C716        C  0.55850465  0.75690991  0.36950614     0.36300
N717        N  0.48851465  0.84764102  0.57051516    -0.38500
N718        N  0.57046572  0.74249146  0.33512664    -0.38500
N719        N  0.58420294  0.87946763  0.51383422    -0.38000
N720        N  0.47880292  0.70261742  0.39509839    -0.38000
C721        C  0.30375615  0.70356367  0.39271876    -0.04700
C722        C  0.32350311  0.73653549  0.37923310    -0.01800
C723        C  0.35571592  0.74750310  0.40566727     0.03200
C724        C  0.36876320  0.72561615  0.44525278    -0.04700
C725        C  0.35207777  0.69061178  0.45448777    -0.01800
C726        C  0.31992106  0.67943986  0.42810753     0.03200
C727        C  0.30904875  0.76151412  0.34171814     0.37900
C728        C  0.36776821  0.66623969  0.49172607     0.37900
C729        C  0.30293422  0.64351903  0.43867866     0.36300
C730        C  0.37347568  0.78305681  0.39480936     0.36300
N731        N  0.28961703  0.61483541  0.44754418    -0.38500
N732        N  0.38756529  0.81142691  0.38622430    -0.38500
N733        N  0.38031420  0.64661739  0.52121797    -0.38000
N734        N  0.29761479  0.78164099  0.31200278    -0.38000
C735        C  0.19422860  0.79170938  0.92361422    -0.04700
C736        C  0.16099948  0.80917831  0.90886143    -0.01800
C737        C  0.12702101  0.79922802  0.93140742     0.03200
C738        C  0.12609066  0.77107438  0.96790419    -0.04700
C739        C  0.15932233  0.75287297  0.98139674    -0.01800
C740        C  0.19325865  0.76368689  0.96024137     0.03200
C741        C  0.16216606  0.83855822  0.87218650     0.37900
C742        C  0.15864983  0.72244492  0.01677927     0.37900
C743        C  0.22720191  0.74591758  0.97699520     0.36300
C744        C  0.09359080  0.81934542  0.91866454     0.36300
N745        N  0.25369706  0.73153364  0.99184108    -0.38500
N746        N  0.06736223  0.83608652  0.90810287    -0.38500
N747        N  0.15823246  0.69816442  0.04486347    -0.38000
N748        N  0.16326912  0.86210477  0.84306623    -0.38000
C749        C  0.29619177  0.69164941  0.89739482    -0.04700
C750        C  0.26634683  0.67048309  0.87695864    -0.01800
C751        C  0.25322814  0.63797380  0.90112385     0.03200
C752        C  0.26989884  0.62617304  0.94565190    -0.04700
C753        C  0.30268826  0.64422678  0.96209452    -0.01800
C754        C  0.31548272  0.67702945  0.93871674     0.03200
C755        C  0.24668206  0.68376164  0.83364020     0.37900
C756        C  0.32338533  0.62904342  0.00339457     0.37900
C757        C  0.34741197  0.69665874  0.95927134     0.36300
C758        C  0.22096070  0.61822983  0.88180649     0.36300
N759        N  0.37259918  0.71211234  0.97670440    -0.38500
N760        N  0.19530146  0.60243313  0.86621702    -0.38500
N761        N  0.34046585  0.61694170  0.03583178    -0.38000
N762        N  0.23093491  0.69434413  0.79912298    -0.38000
C763        C  0.26244207  0.89232263  0.71818452    -0.04700
C764        C  0.28022987  0.92627760  0.70420693    -0.01800
C765        C  0.27443765  0.94163731  0.65680826     0.03200
C766        C  0.24800111  0.92541423  0.62424001    -0.04700
C767        C  0.22462793  0.89657414  0.64273569    -0.01800
C768        C  0.23254094  0.87928760  0.68840539     0.03200
C769        C  0.30467694  0.94584096  0.73840999     0.37900
C770        C  0.19219379  0.88427652  0.61481462     0.37900
C771        C  0.21023329  0.84739670  0.70331907     0.36300
C772        C  0.29735323  0.97294585  0.64143335     0.36300
N773        N  0.19232422  0.82195221  0.71488190    -0.38500
N774        N  0.31587649  0.99782725  0.62945068    -0.38500
N775        N  0.16630785  0.87445072  0.59270584    -0.38000
N776        N  0.32400882  0.96162632  0.76564350    -0.38000
C777        C  0.37379309  0.79076045  0.70252737    -0.04700
C778        C  0.38090011  0.75317147  0.69072893    -0.01800
C779        C  0.39563188  0.74389644  0.64436110     0.03200
C780        C  0.40243466  0.77204172  0.60910794    -0.04700
C781        C  0.39524221  0.80961308  0.62088563    -0.01800
C782        C  0.38148180  0.81899872  0.66758993     0.03200
C783        C  0.37284044  0.72406864  0.72623928     0.37900
C784        C  0.39963484  0.83844357  0.58379481     0.37900
C785        C  0.37315181  0.85765732  0.67844635     0.36300
C786        C  0.40388630  0.70539407  0.63291849     0.36300
N787        N  0.36661948  0.88856552  0.68666086    -0.38500
N788        N  0.41069643  0.67466335  0.62401778    -0.38500
N789        N  0.40280032  0.86143632  0.55417819    -0.38000
N790        N  0.36625462  0.70087995  0.75456760    -0.38000
C791        C  0.50171661  0.78610317  0.96473838    -0.04700
C792        C  0.49230866  0.82424760  0.96699680    -0.01800
C793        C  0.45776979  0.83656285  0.94820031     0.03200
C794        C  0.43314547  0.81093513  0.92545843    -0.04700
C795        C  0.44422270  0.77351155  0.91911834    -0.01800
C796        C  0.47805482  0.76096672  0.93949339     0.03200
C797        C  0.51865819  0.85091847  0.98744755     0.37900
C798        C  0.42101936  0.74806509  0.89067775     0.37900
C799        C  0.48790277  0.72191790  0.93581172     0.36300
C800        C  0.44707886  0.87521735  0.95381077     0.36300
N801        N  0.49564410  0.69073212  0.93291107    -0.38500
N802        N  0.43855050  0.90606432  0.95843400    -0.38500
N803        N  0.40256335  0.72798259  0.86763546    -0.38000
N804        N  0.53994984  0.87225069  0.00308413    -0.38000
C805        C  0.49988243  0.22252504  0.98433701    -0.04700
C806        C  0.52498625  0.24498599  0.95785228    -0.01800
C807        C  0.55688638  0.22905608  0.93712387     0.03200
C808        C  0.56488693  0.19089278  0.94466997    -0.04700
C809        C  0.53870313  0.16798891  0.96881532    -0.01800
C810        C  0.50638549  0.18385381  0.98900692     0.03200
C811        C  0.51865651  0.28475495  0.95326396     0.37900
C812        C  0.54443614  0.12814036  0.97201158     0.37900
C813        C  0.47958784  0.16034699  0.01410133     0.36300
C814        C  0.58053425  0.25156969  0.90574906     0.36300
N815        N  0.45814762  0.14166146  0.03414118    -0.38500
N816        N  0.59917652  0.26942943  0.88033253    -0.38500
N817        N  0.54818388  0.09614913  0.97392524    -0.38000
N818        N  0.51382813  0.31655153  0.95001182    -0.38000
C819        C  0.37221487  0.27076079  0.96555043    -0.04700
C820        C  0.33801247  0.25568027  0.98152676    -0.01800
C821        C  0.30465760  0.26564189  0.95795982     0.03200
C822        C  0.30460686  0.29091231  0.91749712    -0.04700
C823        C  0.33921449  0.30339048  0.89887665    -0.01800
C824        C  0.37283130  0.29349226  0.92309015     0.03200
C825        C  0.33701522  0.22912315  0.02200223     0.37900
C826        C  0.34049174  0.32678863  0.85558653     0.37900
C827        C  0.40801799  0.30771762  0.90500825     0.36300
C828        C  0.27042168  0.24856289  0.97565785     0.36300
N829        N  0.43597167  0.31897181  0.89037657    -0.38500
N830        N  0.24358811  0.23493593  0.99057639    -0.38500
N831        N  0.34206723  0.34521356  0.82064266    -0.38000
N832        N  0.33605667  0.20808198  0.05438140    -0.38000
C833        C  0.27173699  0.00095196  0.97992765    -0.04700
C834        C  0.29859457  0.97945098  0.00621122    -0.01800
C835        C  0.31253054  0.94593718  0.98615538     0.03200
C836        C  0.30043897  0.93345593  0.93952203    -0.04700
C837        C  0.27226142  0.95336324  0.91459842    -0.01800
C838        C  0.25757790  0.98631232  0.93480261     0.03200
C839        C  0.31235868  0.99101894  0.05411215     0.37900
C840        C  0.25667771  0.93892258  0.86893842     0.37900
C841        C  0.22647926  0.00373888  0.90949907     0.36300
C842        C  0.33987079  0.92447402  0.01344085     0.36300
N843        N  0.20167459  0.01735074  0.88909290    -0.38500
N844        N  0.36146388  0.90726180  0.03539956    -0.38500
N845        N  0.24375811  0.92770321  0.83274154    -0.38000
N846        N  0.32340818  0.99945487  0.09262782    -0.38000
C847        C  0.20273601  0.19239299  0.89370757    -0.04700
C848        C  0.23914076  0.17773712  0.89035153    -0.01800
C849        C  0.24842641  0.14476607  0.91575943     0.03200
C850        C  0.22161286  0.12642091  0.94462806    -0.04700
C851        C  0.18429404  0.13797994  0.94236067    -0.01800
C852        C  0.17477640  0.17076620  0.91643519     0.03200
C853        C  0.26796927  0.19767094  0.86384372     0.37900
C854        C  0.15585018  0.11604395  0.96660640     0.37900
C855        C  0.13625282  0.18182174  0.91199582     0.36300
C856        C  0.28613849  0.13076606  0.91435109     0.36300
N857        N  0.10543364  0.19028071  0.90765422    -0.38500
N858        N  0.31613046  0.11944002  0.91305904    -0.38500
N859        N  0.13311737  0.09826431  0.98552134    -0.38000
N860        N  0.29106170  0.21334832  0.84264953    -0.32400
C861        C  0.18463968  0.20239481  0.38508591    -0.04700
C862        C  0.17282654  0.17982439  0.42463815    -0.01800
C863        C  0.14058179  0.18903113  0.45069840     0.03200
C864        C  0.11970055  0.22055307  0.43675754    -0.04700
C865        C  0.12749700  0.23835469  0.39143052    -0.01800
C866        C  0.15953228  0.22846897  0.36491117     0.03200
C867        C  0.19395190  0.14708899  0.43834978     0.37900
C868        C  0.10452679  0.26872939  0.37383844     0.37900
C869        C  0.16680663  0.24553136  0.31762870     0.36300
C870        C  0.12936862  0.16658144  0.49251010     0.36300
N871        N  0.17197305  0.25842635  0.27924523    -0.38500
N872        N  0.12037489  0.14860895  0.52578033    -0.38500
N873        N  0.08626160  0.29300085  0.35974081    -0.38000
N874        N  0.21036330  0.12058218  0.44882440    -0.38000
C875        C  0.29153195  0.32135636  0.40758437    -0.04700
C876        C  0.31431684  0.33577856  0.44594780    -0.01800
C877        C  0.30348373  0.36785228  0.47206209     0.03200
C878        C  0.27054421  0.38674145  0.45895913    -0.04700
C879        C  0.25042988  0.37522262  0.41667041    -0.01800
C880        C  0.26064726  0.34259353  0.39138034     0.03200
C881        C  0.34915991  0.31783149  0.45852141     0.37900
C882        C  0.21770573  0.39550257  0.40055304     0.37900
C883        C  0.23776303  0.33024898  0.35032533     0.36300
C884        C  0.32640090  0.38141247  0.51248125     0.36300
N885        N  0.21935017  0.32100156  0.31742918    -0.38500
N886        N  0.34476943  0.39209309  0.54469867    -0.38500
N887        N  0.19175095  0.41171388  0.38742122    -0.38000
N888        N  0.37703972  0.30370694  0.46849764    -0.38000
C889        C  0.28300795  0.12801394  0.20410993    -0.04700
C890        C  0.24527832  0.12559230  0.18946680    -0.01800
C891        C  0.23538670  0.10999770  0.14341443     0.03200
C892        C  0.26314375  0.09688523  0.11152317    -0.04700
C893        C  0.30086662  0.09957718  0.12601724    -0.01800
C894        C  0.31072833  0.11463550  0.17227604     0.03200
C895        C  0.21663443  0.13945439  0.22169539     0.37900
C896        C  0.32980305  0.08989123  0.09159061     0.37900
C897        C  0.34970776  0.11888775  0.18544020     0.36300
C898        C  0.19664237  0.10798022  0.12847853     0.36300
N899        N  0.38080756  0.12236417  0.19572214    -0.38500
N900        N  0.16574282  0.10647756  0.11646454    -0.38500
N901        N  0.35284904  0.08255377  0.06392881    -0.38000
N902        N  0.19385662  0.15061263  0.24743793    -0.38000
C903        C  0.42514820  0.25664043  0.12995402    -0.04700
C904        C  0.39927301  0.28201621  0.15001814    -0.01800
C905        C  0.38236806  0.27438710  0.19560419     0.03200
C906        C  0.39137540  0.24154348  0.22205597    -0.04700
C907        C  0.42340013  0.22147042  0.20728610    -0.01800
C908        C  0.43960866  0.22851751  0.16100077     0.03200
C909        C  0.38953504  0.31568798  0.12345204     0.37900
C910        C  0.43984889  0.19361462  0.23924040     0.37900
C911        C  0.47027129  0.20538202  0.14521198     0.36300
C912        C  0.35528880  0.30060649  0.21428107     0.36300
N913        N  0.49474942  0.18699113  0.13327129    -0.38500
N914        N  0.33392351  0.32158227  0.22899244    -0.38500
N915        N  0.45322189  0.17139749  0.26478094    -0.38000
N916        N  0.38158966  0.34262979  0.10223681    -0.38000
C917        C  0.42500770  0.20725002  0.44327517    -0.04700
C918        C  0.43886925  0.18857052  0.48495576    -0.01800
C919        C  0.47207326  0.20088570  0.50808163     0.03200
C920        C  0.49214137  0.23216096  0.48924471    -0.04700
C921        C  0.47714302  0.25139044  0.44788518    -0.01800
C922        C  0.44416701  0.23860413  0.42476468     0.03200
C923        C  0.41939310  0.15575259  0.50308189     0.37900
C924        C  0.49436559  0.28548825  0.42997365     0.37900
C925        C  0.42938242  0.25829519  0.38224457     0.36300
C926        C  0.48494253  0.18069689  0.55111203     0.36300
N927        N  0.41757020  0.27396599  0.34839269    -0.38500
N928        N  0.49404449  0.16429156  0.58579031    -0.38500
N929        N  0.50790975  0.31274269  0.41559715    -0.38000
N930        N  0.40391627  0.12948399  0.51722318    -0.38000
C931        C  0.27647959  0.01055502  0.48269907    -0.04700
C932        C  0.27059075  0.04469024  0.50722709    -0.01800
C933        C  0.28562369  0.07833180  0.48862726     0.03200
C934        C  0.30350189  0.07934614  0.44209571    -0.04700
C935        C  0.31000226  0.04490777  0.41801568    -0.01800
C936        C  0.29765856  0.01086632  0.43893494     0.03200
C937        C  0.24738056  0.04588627  0.55058081     0.37900
C938        C  0.32892237  0.04385402  0.37114240     0.37900
C939        C  0.30768824  0.97607112  0.41538462     0.36300
C940        C  0.28294372  0.11164999  0.51869206     0.36300
N941        N  0.31582188  0.94844542  0.39649876    -0.38500
N942        N  0.28069712  0.13802690  0.54291996    -0.38500
N943        N  0.34399343  0.04277644  0.33377533    -0.38000
N944        N  0.22866170  0.04697133  0.58490366    -0.38000
loop_ 
_geom_bond_atom_site_label_1 
_geom_bond_atom_site_label_2 
_geom_bond_distance 
_geom_bond_site_symmetry_2 
_ccdc_geom_bond_type 
Fe1          O17   2.075       .  S
Fe1           O7   2.050       .  S
Fe1          O14   2.044       .  S
Fe1           O6   2.062       .  S
Fe1          O12   1.961       .  S
Fe2           O5   2.071       .  S
Fe2           O9   2.061       .  S
Fe2          O13   2.091       .  S
Fe2          O18   2.070       .  S
Fe2          O12   1.968       .  S
Fe3          O21   2.068       .  S
Fe3           O8   2.074       .  S
Fe3          O15   2.077       .  S
Fe3           O4   2.078       .  S
Fe3          O12   1.965       .  S
O4           C11   1.273       .  A
O5           C19   1.269       .  A
O6           C11   1.272       .  A
O7           C10   1.265       .  A
O8           C20   1.270       .  A
O9           C22   1.268       .  A
C10          O15   1.269       .  A
C10         C875   1.498       .  S
C11         C861   1.490       .  S
O13          C16   1.272       .  A
O14          C16   1.263       .  A
C16         C934   1.512       .  S
O17          C22   1.271       .  A
O18          C20   1.271       .  A
C19          O21   1.272       .  A
C19         C906   1.510       .  S
C20         C889   1.488       .  S
C22         C917   1.481       .  S
C23         C833   1.515       .  S
C23          N24   1.363   1_556  A
C23          N28   1.362       .  A
N24          C25   1.362       .  A
C25         C892   1.487       .  S
C25          N26   1.356       .  A
N26          C27   1.355   1_554  A
C27         C850   1.479       .  S
C27          N28   1.356       .  A
C29         C805   1.483   1_554  S
C29          N30   1.362       .  A
C29          N34   1.361   1_554  A
N30          C31   1.363       .  A
C31         C903   1.501       .  S
C31          N32   1.352       .  A
N32          C33   1.353   1_554  A
C33         C819   1.488       .  S
C33          N34   1.360       .  A
Fe35         O51   2.082       .  S
Fe35         O41   2.051       .  S
Fe35         O48   2.051       .  S
Fe35         O40   2.065       .  S
Fe35         O46   1.963       .  S
Fe36         O39   2.063       .  S
Fe36         O43   2.063       .  S
Fe36         O47   2.085       .  S
Fe36         O52   2.061       .  S
Fe36         O46   1.968       .  S
Fe37         O55   2.084       .  S
Fe37         O42   2.084       .  S
Fe37         O49   2.086       .  S
Fe37         O38   2.081       .  S
Fe37         O46   1.962       .  S
O38          C45   1.274       .  A
O39          C53   1.268       .  A
O40          C45   1.270       .  A
O41          C44   1.267       .  A
O42          C54   1.273       .  A
O43          C56   1.269       .  A
C44          O49   1.272       .  A
C44         C735   1.482       .  S
C45         C749   1.500       .  S
O47          C50   1.270       .  A
O48          C50   1.265       .  A
C50         C794   1.484       .  S
O51          C56   1.271       .  A
O52          C54   1.271       .  A
C53          O55   1.274       .  A
C53         C763   1.513       .  S
C54         C777   1.485       .  S
C56         C836   1.493       .  S
C57         C707   1.507       .  S
C57          N58   1.361       .  A
C57          N62   1.362       .  A
N58          C59   1.357       .  A
C59         C724   1.486       .  S
C59          N60   1.357       .  A
N60          C61   1.357       .  A
C61         C780   1.484       .  S
C61          N62   1.361       .  A
C63         C931   1.502   1_565  S
C63          N64   1.368       .  A
C63          N68   1.362       .  A
N64          C65   1.363       .  A
C65         C766   1.509       .  S
C65          N66   1.353       .  A
N66          C67   1.353       .  A
C67         C693   1.477       .  S
C67          N68   1.354       .  A
Fe69         O85   2.046       .  S
Fe69         O75   2.076       .  S
Fe69         O82   2.084       .  S
Fe69         O74   2.051       .  S
Fe69         O80   1.950       .  S
Fe70         O73   2.058       .  S
Fe70         O77   2.090       .  S
Fe70         O81   2.067       .  S
Fe70         O86   2.092       .  S
Fe70         O80   1.959       .  S
Fe71         O89   2.080       .  S
Fe71         O76   2.059       .  S
Fe71         O83   2.068       .  S
Fe71         O72   2.092       .  S
Fe71         O80   1.956       .  S
O72          C79   1.273       .  A
O73          C87   1.268       .  A
O74          C79   1.266       .  A
O75          C78   1.273       .  A
O76          C88   1.270       .  A
O77          C90   1.272       .  A
C78          O83   1.269       .  A
C78         C637   1.495       .  S
C79         C623   1.480       .  S
O81          C84   1.271       .  A
O82          C84   1.272       .  A
C84         C679   1.497       .  S
O85          C90   1.265       .  A
O86          C88   1.274       .  A
C87          O89   1.272       .  A
C87         C668   1.496       .  S
C88         C651   1.489       .  S
C90         C710   1.479       .  S
C91         C598   1.500   1_554  S
C91          N92   1.363   1_554  A
C91          N96   1.365       .  A
N92          C93   1.357       .  A
C93         C609   1.493       .  S
C93          N94   1.354   1_556  A
N94          C95   1.354       .  A
C95         C654   1.505       .  S
C95          N96   1.361       .  A
C97         C791   1.483       .  S
C97          N98   1.364       .  A
C97         N102   1.363   1_556  A
N98          C99   1.362       .  A
C99         C581   1.506       .  S
C99         N100   1.353   1_556  A
N100        C101   1.351       .  A
C101        C665   1.496       .  S
C101        N102   1.358       .  A
Fe103       O119   2.073       .  S
Fe103       O109   2.065       .  S
Fe103       O116   2.054       .  S
Fe103       O108   2.059       .  S
Fe103       O114   1.965       .  S
Fe104       O107   2.074       .  S
Fe104       O111   2.069       .  S
Fe104       O115   2.092       .  S
Fe104       O120   2.069       .  S
Fe104       O114   1.971       .  S
Fe105       O123   2.062       .  S
Fe105       O110   2.065       .  S
Fe105       O117   2.078       .  S
Fe105       O106   2.068       .  S
Fe105       O114   1.955       .  S
O106        C113   1.268       .  A
O107        C121   1.270       .  A
O108        C113   1.266       .  A
O109        C112   1.272       .  A
O110        C122   1.270       .  A
O111        C124   1.269       .  A
C112        O117   1.272       .  A
C112        C525   1.511       .  S
C113        C539   1.489       .  S
O115        C118   1.273       .  A
O116        C118   1.268       .  A
C118        C808   1.487       .  S
O119        C124   1.267       .  A
O120        C122   1.272       .  A
C121        O123   1.270       .  A
C121        C553   1.486       .  S
C122        C570   1.484       .  S
C124        C595   1.483       .  S
C125        C920   1.507       .  S
C125        N126   1.361       .  A
C125        N130   1.362       .  A
N126        C127   1.359       .  A
C127        C567   1.483       .  S
C127        N128   1.357       .  A
N128        C129   1.359       .  A
C129        C511   1.493       .  S
C129        N130   1.360       .  A
C131        C682   1.484   1_545  S
C131        N132   1.365       .  A
C131        N136   1.363       .  A
N132        C133   1.361       .  A
C133        C497   1.497       .  S
C133        N134   1.353       .  A
N134        C135   1.355       .  A
C135        C556   1.501       .  S
C135        N136   1.360       .  A
Fe137       O153   2.062       .  S
Fe137       O143   2.063       .  S
Fe137       O150   2.068       .  S
Fe137       O142   2.061       .  S
Fe137       O148   1.979       .  S
Fe138       O141   2.045       .  S
Fe138       O145   2.075       .  S
Fe138       O149   2.049       .  S
Fe138       O154   2.077       .  S
Fe138       O148   1.980       .  S
Fe139       O157   2.083       .  S
Fe139       O144   2.068       .  S
Fe139       O151   2.078       .  S
Fe139       O140   2.090       .  S
Fe139       O148   1.970       .  S
O140        C147   1.273       .  A
O141        C155   1.264       .  A
O142        C147   1.268       .  A
O143        C146   1.269       .  A
O144        C156   1.272       .  A
O145        C158   1.270       .  A
C146        O151   1.272       .  A
C146        C514   1.495       .  S
C147        C500   1.517       .  S
O149        C152   1.263       .  A
O150        C152   1.268       .  A
C152        C483   1.473       .  S
O153        C158   1.267       .  A
O154        C156   1.272       .  A
C155        O157   1.272       .  A
C155        C458   1.487       .  S
C156        C441   1.487       .  S
C158        C469   1.483       .  S
C159        C430   1.488   1_554  S
C159        N160   1.366       .  A
C159        N164   1.364   1_554  A
N160        C161   1.363       .  A
C161        C444   1.495       .  S
C161        N162   1.354       .  A
N162        C163   1.353   1_554  A
C163        C528   1.494       .  S
C163        N164   1.360       .  A
C165        C413   1.481   1_554  S
C165        N166   1.361   1_554  A
C165        N170   1.359       .  A
N166        C167   1.361       .  A
C167        C542   1.493       .  S
C167        N168   1.359   1_556  A
N168        C169   1.356       .  A
C169        C455   1.483       .  S
C169        N170   1.358       .  A
Fe171       O187   2.062       .  S
Fe171       O177   2.072       .  S
Fe171       O184   2.059       .  S
Fe171       O176   2.033       .  S
Fe171       O182   1.963       .  S
Fe172       O175   2.073       .  S
Fe172       O179   2.083       .  S
Fe172       O183   2.089       .  S
Fe172       O188   2.062       .  S
Fe172       O182   1.972       .  S
Fe173       O191   2.058       .  S
Fe173       O178   2.080       .  S
Fe173       O185   2.075       .  S
Fe173       O174   2.087       .  S
Fe173       O182   1.975       .  S
O174        C181   1.268       .  A
O175        C189   1.272       .  A
O176        C181   1.260       .  A
O177        C180   1.277       .  A
O178        C190   1.275       .  A
O179        C192   1.268       .  A
C180        O185   1.275       .  A
C180        C847   1.489       .  S
C181        C822   1.501       .  S
O183        C186   1.275       .  A
O184        C186   1.271       .  A
C186        C402   1.484       .  S
O187        C192   1.262       .  A
O188        C190   1.271       .  A
C189        O191   1.269       .  A
C189        C374   1.490       .  S
C190        C388   1.492       .  S
C192        C427   1.508       .  S
C193        C357   1.500       .  S
C193        N194   1.359       .  A
C193        N198   1.362       .  A
N194        C195   1.356       .  A
C195        C878   1.489       .  S
C195        N196   1.357       .  A
N196        C197   1.357       .  A
C197        C385   1.481       .  S
C197        N198   1.362       .  A
C199        C486   1.480       .  S
C199        N200   1.359       .  A
C199        N204   1.360       .  A
N200        C201   1.355       .  A
C201        C864   1.487       .  S
C201        N202   1.357       .  A
N202        C203   1.358       .  A
C203        C371   1.495       .  S
C203        N204   1.359       .  A
Fe205       O221   2.054       .  S
Fe205       O211   2.061       .  S
Fe205       O218   2.054       .  S
Fe205       O210   2.037       .  S
Fe205       O216   1.971       .  S
Fe206       O209   2.064       .  S
Fe206       O213   2.069       .  S
Fe206       O217   2.066       .  S
Fe206       O222   2.057       .  S
Fe206       O216   1.972       .  S
Fe207       O225   2.074       .  S
Fe207       O212   2.075       .  S
Fe207       O219   2.075       .  S
Fe207       O208   2.083       .  S
Fe207       O216   1.973       .  S
O208        C215   1.271       .  A
O209        C223   1.269       .  A
O210        C215   1.263       .  A
O211        C214   1.272       .  A
O212        C224   1.272       .  A
O213        C226   1.268       .  A
C214        O219   1.272       .  A
C214        C721   1.499       .  S
C215        C696   1.484       .  S
O217        C220   1.269       .  A
O218        C220   1.267       .  A
C220        C343   1.491       .  S
O221        C226   1.264       .  A
O222        C224   1.268       .  A
C223        O225   1.271       .  A
C223        C332   1.492       .  S
C224        C315   1.504       .  S
C226        C360   1.477       .  S
C227        C301   1.484   1_455  S
C227        N228   1.361   1_556  A
C227        N232   1.363       .  A
N228        C229   1.359       .  A
C229        C318   1.500       .  S
C229        N230   1.357       .  A
N230        C231   1.355   1_554  A
C231        C738   1.486       .  S
C231        N232   1.359       .  A
C233        C399   1.499       .  S
C233        N234   1.362   1_556  A
C233        N238   1.365       .  A
N234        C235   1.359       .  A
C235        C329   1.483       .  S
C235        N236   1.356       .  A
N236        C237   1.358   1_554  A
C237        C752   1.494       .  S
C237        N238   1.362       .  A
Fe239       O255   2.041       .  S
Fe239       O245   2.070       .  S
Fe239       O252   2.077       .  S
Fe239       O244   2.044       .  S
Fe239       O250   1.945       .  S
Fe240       O243   2.060       .  S
Fe240       O247   2.095       .  S
Fe240       O251   2.070       .  S
Fe240       O256   2.087       .  S
Fe240       O250   1.959       .  S
Fe241       O259   2.069       .  S
Fe241       O246   2.067       .  S
Fe241       O253   2.068       .  S
Fe241       O242   2.089       .  S
Fe241       O250   1.956       .  S
O242        C249   1.272       .  A
O243        C257   1.270       .  A
O244        C249   1.266       .  A
O245        C248   1.270       .  A
O246        C258   1.273       .  A
O247        C260   1.273       .  A
C248        O253   1.270       .  A
C248        C612   1.490       .  S
C249        C584   1.486       .  S
O251        C254   1.271       .  A
O252        C254   1.271       .  A
C254        C416   1.495       .  S
O255        C260   1.265       .  A
O256        C258   1.274       .  A
C257        O259   1.271       .  A
C257        C273   1.486       .  S
C258        C290   1.492       .  S
C260        C304   1.481       .  S
C261        C472   1.509       .  S
C261        N262   1.364       .  A
C261        N266   1.365       .  A
N262        C263   1.358       .  A
C263        C640   1.499       .  S
C263        N264   1.356       .  A
N264        C265   1.356       .  A
C265        C287   1.509       .  S
C265        N266   1.362       .  A
C267        C346   1.472       .  S
C267        N268   1.357       .  A
C267        N272   1.358       .  A
N268        C269   1.356       .  A
C269        C276   1.483       .  S
C269        N270   1.356       .  A
N270        C271   1.356       .  A
C271        C626   1.475       .  S
C271        N272   1.357       .  A
C273        C274   1.415       .  A
C273        C278   1.416       .  A
C274        C275   1.409       .  A
C274        C279   1.452       .  S
C275        C276   1.411       .  A
C275        C282   1.451       .  S
C276        C277   1.414       .  A
C277        C278   1.410       .  A
C277        C280   1.452       .  S
C278        C281   1.452       .  S
C279        N286   1.157       .  T
C280        N285   1.157       .  T
C281        N283   1.158       .  T
C282        N284   1.157       .  T
C287        C288   1.422       .  A
C287        C292   1.424       .  A
C288        C289   1.419       .  A
C288        C293   1.450       .  S
C289        C290   1.412       .  A
C289        C296   1.451       .  S
C290        C291   1.413       .  A
C291        C292   1.412       .  A
C291        C294   1.454       .  S
C292        C295   1.454       .  S
C293        N300   1.158       .  T
C294        N299   1.157       .  T
C295        N297   1.158       .  T
C296        N298   1.157       .  T
C301        C302   1.410       .  A
C301        C306   1.416       .  A
C302        C303   1.408       .  A
C302        C307   1.449       .  S
C303        C304   1.413       .  A
C303        C310   1.453       .  S
C304        C305   1.410       .  A
C305        C306   1.415       .  A
C305        C308   1.450       .  S
C306        C309   1.450   1_656  S
C307        N314   1.157       .  T
C308        N313   1.157       .  T
C309        N311   1.158       .  T
C310        N312   1.157       .  T
C315        C316   1.416       .  A
C315        C320   1.421       .  A
C316        C317   1.411       .  A
C316        C321   1.451       .  S
C317        C318   1.416       .  A
C317        C324   1.452       .  S
C318        C319   1.417       .  A
C319        C320   1.414       .  A
C319        C322   1.450       .  S
C320        C323   1.452       .  S
C321        N328   1.157       .  T
C322        N327   1.157   1_455  T
C323        N325   1.158       .  T
C324        N326   1.157       .  T
C329        C330   1.412       .  A
C329        C334   1.409       .  A
C330        C331   1.414       .  A
C330        C335   1.449       .  S
C331        C332   1.414       .  A
C331        C338   1.450       .  S
C332        C333   1.419       .  A
C333        C334   1.410       .  A
C333        C336   1.451       .  S
C334        C337   1.452       .  S
C335        N342   1.157       .  T
C336        N341   1.157       .  T
C337        N339   1.157       .  T
C338        N340   1.157       .  T
C343        C344   1.417       .  A
C343        C348   1.422       .  A
C344        C345   1.409       .  A
C344        C349   1.452       .  S
C345        C346   1.409   1_455  A
C345        C352   1.452   1_455  S
C346        C347   1.405   1_655  A
C347        C348   1.410       .  A
C347        C350   1.452       .  S
C348        C351   1.451       .  S
C349        N356   1.157       .  T
C350        N355   1.157       .  T
C351        N353   1.157       .  T
C352        N354   1.157       .  T
C357        C358   1.422       .  A
C357        C362   1.422       .  A
C358        C359   1.409       .  A
C358        C363   1.452       .  S
C359        C360   1.407       .  A
C359        C366   1.452       .  S
C360        C361   1.407       .  A
C361        C362   1.414       .  A
C361        C364   1.452       .  S
C362        C365   1.449       .  S
C363        N370   1.157       .  T
C364        N369   1.157       .  T
C365        N367   1.157       .  T
C366        N368   1.157       .  T
C371        C372   1.416       .  A
C371        C376   1.419       .  A
C372        C373   1.408       .  A
C372        C377   1.454       .  S
C373        C374   1.418       .  A
C373        C380   1.454       .  S
C374        C375   1.412       .  A
C375        C376   1.416       .  A
C375        C378   1.450       .  S
C376        C379   1.450       .  S
C377        N384   1.158       .  T
C378        N383   1.157       .  T
C379        N381   1.157       .  T
C380        N382   1.157       .  T
C385        C386   1.412       .  A
C385        C390   1.408       .  A
C386        C387   1.416       .  A
C386        C391   1.450       .  S
C387        C388   1.413       .  A
C387        C394   1.447       .  S
C388        C389   1.421       .  A
C389        C390   1.408       .  A
C389        C392   1.453       .  S
C390        C393   1.453       .  S
C391        N398   1.157       .  T
C392        N397   1.157       .  T
C393        N395   1.157       .  T
C394        N396   1.157       .  T
C399        C400   1.417       .  A
C399        C404   1.421       .  A
C400        C401   1.412       .  A
C400        C405   1.451       .  S
C401        C402   1.412       .  A
C401        C408   1.452       .  S
C402        C403   1.407       .  A
C403        C404   1.415       .  A
C403        C406   1.451       .  S
C404        C407   1.448   1_556  S
C405        N412   1.157       .  T
C406        N411   1.157       .  T
C407        N409   1.157       .  T
C408        N410   1.157       .  T
C413        C414   1.411       .  A
C413        C418   1.407       .  A
C414        C415   1.414       .  A
C414        C419   1.450       .  S
C415        C416   1.417       .  A
C415        C422   1.451       .  S
C416        C417   1.420       .  A
C417        C418   1.411       .  A
C417        C420   1.451       .  S
C418        C421   1.453   1_556  S
C419        N426   1.157       .  T
C420        N425   1.157       .  T
C421        N423   1.157       .  T
C422        N424   1.157       .  T
C427        C428   1.420       .  A
C427        C432   1.425       .  A
C428        C429   1.417   1_455  A
C428        C433   1.450       .  S
C429        C430   1.411       .  A
C429        C436   1.451       .  S
C430        C431   1.408   1_655  A
C431        C432   1.415       .  A
C431        C434   1.452   1_556  S
C432        C435   1.451       .  S
C433        N440   1.157       .  T
C434        N439   1.157       .  T
C435        N437   1.158   1_556  T
C436        N438   1.157       .  T
C441        C442   1.413       .  A
C441        C446   1.414       .  A
C442        C443   1.420       .  A
C442        C447   1.450       .  S
C443        C444   1.417       .  A
C443        C450   1.449       .  S
C444        C445   1.416       .  A
C445        C446   1.406       .  A
C445        C448   1.455       .  S
C446        C449   1.453       .  S
C447        N454   1.157       .  T
C448        N453   1.158       .  T
C449        N451   1.157       .  T
C450        N452   1.157       .  T
C455        C456   1.409       .  A
C455        C460   1.413       .  A
C456        C457   1.409       .  A
C456        C461   1.453       .  S
C457        C458   1.420       .  A
C457        C464   1.453       .  S
C458        C459   1.410       .  A
C459        C460   1.414       .  A
C459        C462   1.449       .  S
C460        C463   1.448       .  S
C461        N468   1.157       .  T
C462        N467   1.157       .  T
C463        N465   1.157       .  T
C464        N466   1.157       .  T
C469        C470   1.406       .  A
C469        C474   1.409       .  A
C470        C471   1.416       .  A
C470        C475   1.450       .  S
C471        C472   1.426       .  A
C471        C478   1.451       .  S
C472        C473   1.424       .  A
C473        C474   1.411       .  A
C473        C476   1.452       .  S
C474        C477   1.453       .  S
C475        N482   1.157       .  T
C476        N481   1.158       .  T
C477        N479   1.157       .  T
C478        N480   1.158       .  T
C483        C484   1.409       .  A
C483        C488   1.410       .  A
C484        C485   1.411       .  A
C484        C489   1.450       .  S
C485        C486   1.415   1_655  A
C485        C492   1.451   1_655  S
C486        C487   1.413   1_455  A
C487        C488   1.406       .  A
C487        C490   1.451       .  S
C488        C491   1.452       .  S
C489        N496   1.157       .  T
C490        N495   1.157       .  T
C491        N493   1.157       .  T
C492        N494   1.157       .  T
C497        C498   1.412       .  A
C497        C502   1.412       .  A
C498        C499   1.418       .  A
C498        C503   1.451       .  S
C499        C500   1.426       .  A
C499        C506   1.450       .  S
C500        C501   1.424       .  A
C501        C502   1.413       .  A
C501        C504   1.452       .  S
C502        C505   1.453       .  S
C503        N510   1.157       .  T
C504        N509   1.157       .  T
C505        N507   1.157       .  T
C506        N508   1.157       .  T
C511        C512   1.413       .  A
C511        C516   1.415       .  A
C512        C513   1.412       .  A
C512        C517   1.450       .  S
C513        C514   1.416       .  A
C513        C520   1.452       .  S
C514        C515   1.416       .  A
C515        C516   1.414       .  A
C515        C518   1.450       .  S
C516        C519   1.451       .  S
C517        N524   1.157       .  T
C518        N523   1.157       .  T
C519        N521   1.157       .  T
C520        N522   1.157       .  T
C525        C526   1.420       .  A
C525        C530   1.425       .  A
C526        C527   1.412       .  A
C526        C531   1.452       .  S
C527        C528   1.414       .  A
C527        C534   1.452   1_556  S
C528        C529   1.412       .  A
C529        C530   1.415       .  A
C529        C532   1.451       .  S
C530        C533   1.451       .  S
C531        N538   1.158       .  T
C532        N537   1.157       .  T
C533        N535   1.157       .  T
C534        N536   1.157       .  T
C539        C540   1.416       .  A
C539        C544   1.414       .  A
C540        C541   1.413       .  A
C540        C545   1.451       .  S
C541        C542   1.416       .  A
C541        C548   1.450       .  S
C542        C543   1.414       .  A
C543        C544   1.409       .  A
C543        C546   1.450   1_556  S
C544        C547   1.452       .  S
C545        N552   1.157       .  T
C546        N551   1.157       .  T
C547        N549   1.157       .  T
C548        N550   1.157       .  T
C553        C554   1.412       .  A
C553        C558   1.413       .  A
C554        C555   1.418       .  A
C554        C559   1.450       .  S
C555        C556   1.420       .  A
C555        C562   1.450       .  S
C556        C557   1.421       .  A
C557        C558   1.407       .  A
C557        C560   1.455       .  S
C558        C561   1.454       .  S
C559        N566   1.157       .  T
C560        N565   1.158       .  T
C561        N563   1.157       .  T
C562        N564   1.157   1_545  T
C567        C568   1.411       .  A
C567        C572   1.412       .  A
C568        C569   1.413       .  A
C568        C573   1.449       .  S
C569        C570   1.413       .  A
C569        C576   1.450       .  S
C570        C571   1.415       .  A
C571        C572   1.410       .  A
C571        C574   1.452       .  S
C572        C575   1.452       .  S
C573        N580   1.157       .  T
C574        N579   1.157       .  T
C575        N577   1.157       .  T
C576        N578   1.157       .  T
C581        C582   1.426       .  A
C581        C586   1.422       .  A
C582        C583   1.406       .  A
C582        C587   1.455   1_556  S
C583        C584   1.412       .  A
C583        C590   1.456       .  S
C584        C585   1.410       .  A
C585        C586   1.418       .  A
C585        C588   1.451       .  S
C586        C589   1.449       .  S
C587        N594   1.158       .  T
C588        N593   1.157       .  T
C589        N591   1.157       .  T
C590        N592   1.158   1_556  T
C595        C596   1.409       .  A
C595        C600   1.411       .  A
C596        C597   1.414   1_556  A
C596        C601   1.448   1_556  S
C597        C598   1.421   1_544  A
C597        C604   1.452   1_545  S
C598        C599   1.420   1_565  A
C599        C600   1.412       .  A
C599        C602   1.451       .  S
C600        C603   1.453       .  S
C601        N608   1.156       .  T
C602        N607   1.158       .  T
C603        N605   1.157       .  T
C604        N606   1.157       .  T
C609        C610   1.414       .  A
C609        C614   1.417       .  A
C610        C611   1.409       .  A
C610        C615   1.452   1_556  S
C611        C612   1.414       .  A
C611        C618   1.451       .  S
C612        C613   1.416       .  A
C613        C614   1.415       .  A
C613        C616   1.452       .  S
C614        C617   1.451       .  S
C615        N622   1.157       .  T
C616        N621   1.157       .  T
C617        N619   1.158       .  T
C618        N620   1.157       .  T
C623        C624   1.413       .  A
C623        C628   1.411       .  A
C624        C625   1.415       .  A
C624        C629   1.450       .  S
C625        C626   1.410       .  A
C625        C632   1.449       .  S
C626        C627   1.408       .  A
C627        C628   1.405       .  A
C627        C630   1.454       .  S
C628        C631   1.446       .  S
C629        N636   1.157       .  T
C630        N635   1.157       .  T
C631        N633   1.154       .  T
C632        N634   1.157       .  T
C637        C638   1.417       .  A
C637        C642   1.412       .  A
C638        C639   1.418       .  A
C638        C643   1.451       .  S
C639        C640   1.419       .  A
C639        C646   1.450       .  S
C640        C641   1.415       .  A
C641        C642   1.408       .  A
C641        C644   1.451       .  S
C642        C645   1.451       .  S
C643        N650   1.157       .  T
C644        N649   1.157       .  T
C645        N647   1.157       .  T
C646        N648   1.158       .  T
C651        C652   1.413       .  A
C651        C656   1.412       .  A
C652        C653   1.408       .  A
C652        C657   1.455       .  S
C653        C654   1.423       .  A
C653        C660   1.453       .  S
C654        C655   1.420       .  A
C655        C656   1.419       .  A
C655        C658   1.450       .  S
C656        C659   1.450       .  S
C657        N664   1.157       .  T
C658        N663   1.157       .  T
C659        N661   1.158       .  T
C660        N662   1.157       .  T
C665        C666   1.414       .  A
C665        C670   1.417       .  A
C666        C667   1.413       .  A
C666        C671   1.449       .  S
C667        C668   1.419       .  A
C667        C674   1.452       .  S
C668        C669   1.415       .  A
C669        C670   1.411       .  A
C669        C672   1.452       .  S
C670        C673   1.452       .  S
C671        N678   1.157       .  T
C672        N677   1.157       .  T
C673        N675   1.157       .  T
C674        N676   1.157       .  T
C679        C680   1.417       .  A
C679        C684   1.420       .  A
C680        C681   1.413       .  A
C680        C685   1.451       .  S
C681        C682   1.410       .  A
C681        C688   1.451   1_565  S
C682        C683   1.409       .  A
C683        C684   1.414       .  A
C683        C686   1.451       .  S
C684        C687   1.451       .  S
C685        N692   1.157       .  T
C686        N691   1.157       .  T
C687        N689   1.157       .  T
C688        N690   1.157       .  T
C693        C694   1.407       .  A
C693        C698   1.412       .  A
C694        C695   1.400       .  A
C694        C699   1.456       .  S
C695        C696   1.419       .  A
C695        C702   1.452       .  S
C696        C697   1.414       .  A
C697        C698   1.417       .  A
C697        C700   1.449       .  S
C698        C701   1.449       .  S
C699        N706   1.157       .  T
C700        N705   1.157       .  T
C701        N703   1.157       .  T
C702        N704   1.157       .  T
C707        C708   1.424       .  A
C707        C712   1.426       .  A
C708        C709   1.411       .  A
C708        C713   1.453       .  S
C709        C710   1.408       .  A
C709        C716   1.453       .  S
C710        C711   1.405       .  A
C711        C712   1.415       .  A
C711        C714   1.452       .  S
C712        C715   1.449       .  S
C713        N720   1.157       .  T
C714        N719   1.157       .  T
C715        N717   1.158       .  T
C716        N718   1.158       .  T
C721        C722   1.424       .  A
C721        C726   1.417       .  A
C722        C723   1.413       .  A
C722        C727   1.452       .  S
C723        C724   1.411       .  A
C723        C730   1.453       .  S
C724        C725   1.410       .  A
C725        C726   1.412       .  A
C725        C728   1.450       .  S
C726        C729   1.451       .  S
C727        N734   1.158       .  T
C728        N733   1.157       .  T
C729        N731   1.157       .  T
C730        N732   1.157       .  T
C735        C736   1.409       .  A
C735        C740   1.414       .  A
C736        C737   1.416       .  A
C736        C741   1.450       .  S
C737        C738   1.415       .  A
C737        C744   1.447       .  S
C738        C739   1.412       .  A
C739        C740   1.407       .  A
C739        C742   1.454   1_556  S
C740        C743   1.452       .  S
C741        N748   1.157       .  T
C742        N747   1.157       .  T
C743        N745   1.157       .  T
C744        N746   1.156       .  T
C749        C750   1.420       .  A
C749        C754   1.418       .  A
C750        C751   1.417       .  A
C750        C755   1.451       .  S
C751        C752   1.413       .  A
C751        C758   1.451       .  S
C752        C753   1.411       .  A
C753        C754   1.412       .  A
C753        C756   1.450   1_556  S
C754        C757   1.451       .  S
C755        N762   1.157       .  T
C756        N761   1.157       .  T
C757        N759   1.157       .  T
C758        N760   1.157       .  T
C763        C764   1.424       .  A
C763        C768   1.418       .  A
C764        C765   1.416       .  A
C764        C769   1.453       .  S
C765        C766   1.417       .  A
C765        C772   1.451       .  S
C766        C767   1.422       .  A
C767        C768   1.415       .  A
C767        C770   1.453       .  S
C768        C771   1.451       .  S
C769        N776   1.157       .  T
C770        N775   1.157       .  T
C771        N773   1.158       .  T
C772        N774   1.158       .  T
C777        C778   1.412       .  A
C777        C782   1.415       .  A
C778        C779   1.414       .  A
C778        C783   1.450       .  S
C779        C780   1.412       .  A
C779        C786   1.449       .  S
C780        C781   1.412       .  A
C781        C782   1.410       .  A
C781        C784   1.452       .  S
C782        C785   1.452       .  S
C783        N790   1.157       .  T
C784        N789   1.157       .  T
C785        N787   1.157       .  T
C786        N788   1.157       .  T
C791        C792   1.413       .  A
C791        C796   1.410       .  A
C792        C793   1.414       .  A
C792        C797   1.450       .  S
C793        C794   1.411       .  A
C793        C800   1.450       .  S
C794        C795   1.414       .  A
C795        C796   1.410       .  A
C795        C798   1.452       .  S
C796        C799   1.451       .  S
C797        N804   1.157   1_556  T
C798        N803   1.157       .  T
C799        N801   1.157       .  T
C800        N802   1.157       .  T
C805        C806   1.408       .  A
C805        C810   1.413       .  A
C806        C807   1.409       .  A
C806        C811   1.450       .  S
C807        C808   1.415       .  A
C807        C814   1.451       .  S
C808        C809   1.411       .  A
C809        C810   1.415       .  A
C809        C812   1.447       .  S
C810        C813   1.451   1_556  S
C811        N818   1.157       .  T
C812        N817   1.157       .  T
C813        N815   1.158       .  T
C814        N816   1.157       .  T
C819        C820   1.413       .  A
C819        C824   1.413       .  A
C820        C821   1.404       .  A
C820        C825   1.455   1_556  S
C821        C822   1.424       .  A
C821        C828   1.457       .  S
C822        C823   1.418       .  A
C823        C824   1.420       .  A
C823        C826   1.446       .  S
C824        C827   1.452       .  S
C825        N832   1.159       .  T
C826        N831   1.158       .  T
C827        N829   1.155       .  T
C828        N830   1.156       .  T
C833        C834   1.427   1_546  A
C833        C838   1.425   1_545  A
C834        C835   1.418   1_554  A
C834        C839   1.450       .  S
C835        C836   1.410       .  A
C835        C842   1.452   1_556  S
C836        C837   1.412       .  A
C837        C838   1.412       .  A
C837        C840   1.453       .  S
C838        C841   1.454   1_565  S
C839        N846   1.157       .  T
C840        N845   1.157       .  T
C841        N843   1.158       .  T
C842        N844   1.157       .  T
C847        C848   1.419       .  A
C847        C852   1.412       .  A
C848        C849   1.409       .  A
C848        C853   1.452       .  S
C849        C850   1.408       .  A
C849        C856   1.452       .  S
C850        C851   1.410       .  A
C851        C852   1.413       .  A
C851        C854   1.449       .  S
C852        C855   1.449       .  S
C853        N860   1.157       .  T
C854        N859   1.157       .  T
C855        N857   1.157       .  T
C856        N858   1.157       .  T
C861        C862   1.412       .  A
C861        C866   1.412       .  A
C862        C863   1.408       .  A
C862        C867   1.450       .  S
C863        C864   1.411       .  A
C863        C870   1.451       .  S
C864        C865   1.417       .  A
C865        C866   1.414       .  A
C865        C868   1.450       .  S
C866        C869   1.449       .  S
C867        N874   1.157       .  T
C868        N873   1.157       .  T
C869        N871   1.157       .  T
C870        N872   1.157       .  T
C875        C876   1.418       .  A
C875        C880   1.419       .  A
C876        C877   1.412       .  A
C876        C881   1.452       .  S
C877        C878   1.413       .  A
C877        C884   1.451       .  S
C878        C879   1.415       .  A
C879        C880   1.411       .  A
C879        C882   1.453       .  S
C880        C883   1.450       .  S
C881        N888   1.157       .  T
C882        N887   1.158       .  T
C883        N885   1.156       .  T
C884        N886   1.157       .  T
C889        C890   1.414       .  A
C889        C894   1.415       .  A
C890        C891   1.415       .  A
C890        C895   1.451       .  S
C891        C892   1.413       .  A
C891        C898   1.450       .  S
C892        C893   1.413       .  A
C893        C894   1.412       .  A
C893        C896   1.452       .  S
C894        C897   1.452       .  S
C895        N902   1.157       .  T
C896        N901   1.157       .  T
C897        N899   1.157       .  T
C898        N900   1.157       .  T
C903        C904   1.420       .  A
C903        C908   1.413       .  A
C904        C905   1.412       .  A
C904        C909   1.450       .  S
C905        C906   1.417       .  A
C905        C912   1.455       .  S
C906        C907   1.425       .  A
C907        C908   1.414       .  A
C907        C910   1.449       .  S
C908        C911   1.454       .  S
C909        N916   1.161       .  T
C910        N915   1.161       .  T
C911        N913   1.154       .  T
C912        N914   1.155       .  T
C917        C918   1.406       .  A
C917        C922   1.409       .  A
C918        C919   1.414       .  A
C918        C923   1.453       .  S
C919        C920   1.426       .  A
C919        C926   1.450       .  S
C920        C921   1.423       .  A
C921        C922   1.412       .  A
C921        C924   1.452       .  S
C922        C925   1.453       .  S
C923        N930   1.157       .  T
C924        N929   1.158       .  T
C925        N927   1.157       .  T
C926        N928   1.157       .  T
C931        C932   1.413       .  A
C931        C936   1.420       .  A
C932        C933   1.413       .  A
C932        C937   1.453       .  S
C933        C934   1.426       .  A
C933        C940   1.453       .  S
C934        C935   1.421       .  A
C935        C936   1.416       .  A
C935        C938   1.452       .  S
C936        C939   1.453   1_545  S
C937        N944   1.158       .  T
C938        N943   1.158       .  T
C939        N941   1.158       .  T
C940        N942   1.158       .  T
