geometry optimzed in LAMMPS
_audit_creation_date              2020-11-30 
_audit_creation_method            'lammps2cif' 
_symmetry_space_group_name_H-M    'P1' 
_symmetry_Int_Tables_number       1 
_symmetry_cell_setting            triclinic 
loop_ 
_symmetry_equiv_pos_as_xyz 
  x,y,z 
_cell_length_a                    34.778205 
_cell_length_b                    34.51321731822583 
_cell_length_c                    112.09233708670668 
_cell_angle_alpha                 89.94024991889835 
_cell_angle_beta                  90.00606580414272 
_cell_angle_gamma                 89.78196036570809 
loop_ 
_atom_site_label 
_atom_site_type_symbol 
_atom_site_fract_x 
_atom_site_fract_y 
_atom_site_fract_z 
_atom_site_charge 
C1          C  0.13795936  0.24683455  0.34235306     0.87500
C2          C  0.16440518  0.27051513  0.35100384    -0.52800
C3          C  0.14442505  0.29385513  0.35875825     0.10400
C4          C  0.10094473  0.29158726  0.35731546     0.21300
C5          C  0.10999169  0.22490384  0.35084346    -0.53500
C6          C  0.09075701  0.24885975  0.35863302     0.10500
C7          C  0.11267210  0.27814750  0.33639395    -0.53000
C8          C  0.09356891  0.30101640  0.34425136     0.11100
H9          H  0.19551023  0.27002056  0.35100232     0.15600
H10         H  0.08492470  0.31086624  0.36354900     0.01300
H11         H  0.10527825  0.19385636  0.35048254     0.15900
H12         H  0.11020687  0.28192194  0.32679736     0.15700
O13         O  0.22975848  0.21131846  0.29550113    -0.79900
O14         O  0.22202508  0.16484382  0.24237137    -0.64600
O15         O  0.21157459  0.21630565  0.27199167    -1.11200
C16         C  0.10433637  0.12663342  0.27787480     1.07000
O17         O  0.16181624  0.15529116  0.24174194    -0.77800
O18         O  0.10341847  0.17172432  0.25591433    -0.65400
Ni19       Ni  0.25885787  0.21707234  0.28109690     1.34900
C20         C  0.11109590  0.20725020  0.25662063     0.85700
O21         O  0.25387930  0.22570245  0.25139964    -0.78400
O22         O  0.29279329  0.22547215  0.26716271    -0.88600
C23         C  0.19508173  0.14195352  0.24093959     0.85300
O24         O  0.27065984  0.16221664  0.28100091    -0.66800
O25         O  0.11870247  0.10840578  0.26909470    -0.86100
C26         C  0.27500718  0.14230289  0.27157300     0.86100
C27         C  0.28659670  0.23091670  0.25599354     1.07700
H28         H  0.19369820  0.13407988  0.26928654     0.39500
O29         O  0.18048091  0.15465560  0.26509241    -1.08800
O30         O  0.13671113  0.21981097  0.26380336    -0.65400
Ni31       Ni  0.16268172  0.19094075  0.27665002     1.26300
O32         O  0.25936860  0.15297218  0.26182681    -0.65700
O33         O  0.11505098  0.16137579  0.28076107    -0.78000
C34         C  0.20278675  0.18812484  0.29826896     0.85500
O35         O  0.18698861  0.16664385  0.29033133    -0.65100
Ni36       Ni  0.14060116  0.13158827  0.25539289     1.27400
Ni37       Ni  0.21811583  0.18955059  0.25751429     1.26100
H38         H  0.20556909  0.24299286  0.27014678     0.40000
C39         C  0.47885821  0.44560980  0.34275584     0.87500
C40         C  0.45265042  0.42285946  0.35169028    -0.52800
C41         C  0.47276729  0.39939991  0.35936786     0.10400
C42         C  0.51621179  0.40082489  0.35762025     0.21300
C43         C  0.50773350  0.46743850  0.35090524    -0.53500
C44         C  0.52709977  0.44350364  0.35864654     0.10500
C45         C  0.50314649  0.41366154  0.33675013    -0.53000
C46         C  0.52247589  0.39077911  0.34454303     0.11100
H47         H  0.42156997  0.42397562  0.35192357     0.15600
H48         H  0.53237786  0.38154375  0.36382763     0.01300
H49         H  0.51305686  0.99842115  0.35037154     0.15900
H50         H  0.50492981  0.40958508  0.32715270     0.15700
O51         O  0.38788234  0.47601351  0.29564595    -0.79900
O52         O  0.40545722  0.02342779  0.24255949    -0.64600
O53         O  0.40915179  0.47035638  0.27227741    -1.11200
C54         C  0.01327774  0.06309658  0.27863403     1.07000
O55         O  0.46646525  0.01598471  0.24349062    -0.77800
O56         O  0.02219603  0.01139211  0.25957810    -0.65400
Ni57       Ni  0.36114471  0.46778811  0.28088413     1.34900
C58         C  0.01351744  0.47636178  0.25967995     0.85700
O59         O  0.36891226  0.46286308  0.25089129    -0.78400
O60         O  0.32993078  0.45679209  0.26662238    -0.88600
C61         C  0.43834067  0.03345183  0.23920189     0.85300
O62         O  0.34665617  0.02183195  0.28032709    -0.66800
O63         O  0.00058371  0.07827068  0.26905193    -0.86100
C64         C  0.34519695  0.04345365  0.27116277     0.86100
C65         C  0.33690217  0.45366169  0.25542650     1.07700
H66         H  0.42893031  0.05352738  0.26891680     0.39500
O67         O  0.44172414  0.03129075  0.26549431    -1.08800
O68         O  0.98544719  0.46492736  0.26605484    -0.65400
Ni69       Ni  0.45680069  0.99644466  0.27777269     1.26300
O70         O  0.36378381  0.03486917  0.26168982    -0.65700
O71         O  0.00280793  0.02873743  0.28228231    -0.78000
C72         C  0.41364344  0.50051834  0.29845073     0.85500
O73         O  0.42903893  0.52211180  0.29046829    -0.65100
Ni74       Ni  0.98378203  0.04849235  0.25597837     1.27400
Ni75       Ni  0.40489871  0.99765680  0.25765253     1.26100
H76         H  0.41597222  0.44388750  0.27043359     0.40000
O77         O  0.22955646  0.43853571  0.49691717    -0.79900
O78         O  0.23461966  0.47927869  0.45006015    -0.64600
O79         O  0.24214765  0.46513139  0.47489346    -1.11200
C80         C  0.16440867  0.07047350  0.48491939     1.07000
O81         O  0.18960617  0.52135159  0.44459183    -0.77800
O82         O  0.23524665  0.06019808  0.46051693    -0.65400
Ni83       Ni  0.25987401  0.42139710  0.48396618     1.34900
C84         C  0.25516440  0.06178279  0.46999876     0.85700
O85         O  0.23893772  0.40438622  0.45760146    -0.78400
O86         O  0.28843998  0.40471917  0.47061482    -0.88600
C87         C  0.21387978  0.49498251  0.44194726     0.85300
O88         O  0.22154207  0.38455097  0.48025360    -0.66800
O89         O  0.16992975  0.07858337  0.47387353    -0.86100
C90         C  0.18687969  0.39446161  0.48018721     0.86100
C91         C  0.27306523  0.39310556  0.46098118     1.07700
H92         H  0.15553134  0.49267651  0.46938007     0.39500
O93         O  0.18207885  0.49908364  0.46786019    -1.08800
O94         O  0.24476073  0.04368060  0.47941117    -0.65400
Ni95       Ni  0.20757302  0.50186332  0.48273534     1.26300
O96         O  0.17602298  0.42302981  0.47386447    -0.65700
O97         O  0.17194398  0.03752732  0.48930488    -0.78000
C98         C  0.24608450  0.46829598  0.50051019     0.85500
O99         O  0.23114536  0.50036655  0.49813026    -0.65100
Ni100      Ni  0.18122416  0.04785277  0.45947193     1.27400
Ni101      Ni  0.20796497  0.45130255  0.46235463     1.26100
H102        H  0.26415959  0.47842047  0.47162372     0.40000
C103        C  0.15681993  0.42673625  0.39871493     0.87500
C104        C  0.17764191  0.39778597  0.39022961    -0.52800
C105        C  0.15315110  0.37845850  0.38269559     0.10400
C106        C  0.11091173  0.38972421  0.38422818     0.21300
C107        C  0.13308498  0.45348621  0.39018685    -0.53500
C108        C  0.10924562  0.43366389  0.38268520     0.10500
C109        C  0.12594357  0.40199542  0.40500925    -0.53000
C110        C  0.10247155  0.38279849  0.39739475     0.11100
H111        H  0.20839599  0.39237540  0.39044691     0.15600
H112        H  0.09116252  0.37381377  0.37816467     0.01300
H113        H  0.13394031  0.98484787  0.39005648     0.15900
H114        H  0.12314166  0.39963742  0.41463845     0.15700
O115        O  0.36995410  0.25455403  0.49780486    -0.79900
O116        O  0.37765609  0.21758875  0.45030218    -0.64600
O117        O  0.36479616  0.22965690  0.47522093    -1.11200
C118        C  0.44081876  0.12394643  0.48626858     1.07000
O119        O  0.42278407  0.17437181  0.44579554    -0.77800
O120        O  0.37415260  0.13447754  0.46090952    -0.65400
Ni121      Ni  0.34434608  0.27288239  0.48409685     1.34900
C122        C  0.35317766  0.13220623  0.47017930     0.85700
O123        O  0.37222180  0.29202906  0.45835740    -0.78400
O124        O  0.31982345  0.29097876  0.47017151    -0.88600
C125        C  0.39973489  0.20124750  0.44263996     0.85300
O126        O  0.38415327  0.30963435  0.48194181    -0.66800
O127        O  0.43704491  0.11619173  0.47514951    -0.86100
C128        C  0.41893927  0.29983999  0.48213590     0.86100
C129        C  0.33760578  0.30352998  0.46108452     1.07700
H130        H  0.45225715  0.20214445  0.47119013     0.39500
O131        O  0.42599049  0.19596066  0.46918990    -1.08800
O132        O  0.36196881  0.15056539  0.47966896    -0.65400
Ni133      Ni  0.39811285  0.19250791  0.48360213     1.26300
O134        O  0.43083539  0.27176736  0.47577412    -0.65700
O135        O  0.43280412  0.15679520  0.49061075    -0.78000
C136        C  0.35365517  0.22332689  0.50012528     0.85500
O137        O  0.37219210  0.19282781  0.49861485    -0.65100
Ni138      Ni  0.42830286  0.14744853  0.46071434     1.27400
Ni139      Ni  0.40153915  0.24436456  0.46344622     1.26100
H140        H  0.34378165  0.21630727  0.47139368     0.40000
C141        C  0.46100595  0.26589893  0.39902337     0.87500
C142        C  0.43994687  0.29477982  0.39057344    -0.52800
C143        C  0.46419986  0.31427303  0.38302495     0.10400
C144        C  0.50652832  0.30304303  0.38442662     0.21300
C145        C  0.48464562  0.23916962  0.39044812    -0.53500
C146        C  0.50843132  0.25907881  0.38288323     0.10500
C147        C  0.49197883  0.29065873  0.40523928    -0.53000
C148        C  0.01529414  0.30986081  0.39756772     0.11100
H149        H  0.40920468  0.30024937  0.39088754     0.15600
H150        H  0.02606378  0.31911160  0.37832652     0.01300
H151        H  0.48381495  0.20783662  0.39037611     0.15900
H152        H  0.49501788  0.29291419  0.41486255     0.15700
C153        C  0.20719663  0.26620086  0.09140193     0.87500
C154        C  0.23010283  0.23907040  0.10005862    -0.52800
C155        C  0.25379935  0.25859068  0.10769113     0.10400
C156        C  0.25248627  0.30250575  0.10621977     0.21300
C157        C  0.18598062  0.29500096  0.09981786    -0.53500
C158        C  0.21018444  0.31385720  0.10753447     0.10500
C159        C  0.23864478  0.29078037  0.08535982    -0.53000
C160        C  0.26187553  0.30952059  0.09312755     0.11100
H161        H  0.22892745  0.20776582  0.10018095     0.15600
H162        H  0.27199812  0.31814971  0.11242130     0.01300
H163        H  0.15524918  0.30051924  0.09947845     0.15900
H164        H  0.24228998  0.29297975  0.07575398     0.15700
O165        O  0.17522937  0.17528921  0.04410778    -0.79900
O166        O  0.12789937  0.19229019  0.99109938    -0.64600
O167        O  0.17955235  0.19692855  0.02083007    -1.11200
C168        C  0.08955281  0.30393715  0.02786047     1.07000
O169        O  0.12645526  0.25408012  0.99165674    -0.77800
O170        O  0.13719976  0.31025656  0.00732461    -0.65400
Ni171      Ni  0.18099258  0.14809468  0.02932705     1.34900
C172        C  0.17224701  0.30166707  0.00774528     0.85700
O173        O  0.18780564  0.15719145  0.99962373    -0.78400
O174        O  0.18953301  0.11612127  0.01497056    -0.88600
C175        C  0.11059715  0.22306449  0.98886765     0.85300
O176        O  0.12674629  0.13645803  0.02917644    -0.66800
O177        O  0.07265830  0.29106880  0.01862767    -0.86100
C178        C  0.10592893  0.13448851  0.01990214     0.86100
C179        C  0.19464809  0.12404285  0.00390371     1.07700
H180        H  0.09731490  0.21698358  0.01794596     0.39500
O181        O  0.11865010  0.23017974  0.01424385    -1.08800
O182        O  0.18405646  0.27366115  0.01420943    -0.65400
Ni183      Ni  0.15422782  0.24534820  0.02627983     1.26300
O184        O  0.11573582  0.15164263  0.01028024    -0.65700
O185        O  0.12382436  0.29253843  0.03101542    -0.78000
C186        C  0.15187618  0.20212158  0.04706190     0.85500
O187        O  0.12994420  0.21811389  0.03926942    -0.65100
Ni188      Ni  0.09866311  0.27254311  0.00497934     1.27400
Ni189      Ni  0.15262470  0.19294160  0.00628207     1.26100
H190        H  0.20593797  0.20320278  0.01901330     0.40000
C191        C  0.40598727  0.42372397  0.09088666     0.87500
C192        C  0.38267454  0.45013855  0.09966415    -0.52800
C193        C  0.35957403  0.42996379  0.10732718     0.10400
C194        C  0.36164097  0.38621342  0.10574281     0.21300
C195        C  0.42780202  0.39492171  0.09918801    -0.53500
C196        C  0.40403050  0.37546649  0.10691047     0.10500
C197        C  0.37477816  0.39872410  0.08485270    -0.53000
C198        C  0.35207545  0.37933976  0.09268066     0.11100
H199        H  0.38290668  0.98160672  0.09979499     0.15600
H200        H  0.34256097  0.37006271  0.11196668     0.01300
H201        H  0.45856637  0.38970733  0.09872478     0.15900
H202        H  0.37096447  0.39667201  0.07525444     0.15700
O203        O  0.44100537  0.52156470  0.04510222    -0.79900
O204        O  0.48349332  0.50901867  0.99154274    -0.64600
O205        O  0.43515395  0.50186790  0.02175250    -1.11200
C206        C  0.02670429  0.39580000  0.02786726     1.07000
O207        O  0.98928589  0.44753876  0.99177110    -0.77800
O208        O  0.47813586  0.39070576  0.00716682    -0.65400
Ni209      Ni  0.43405253  0.04994122  0.03052135     1.34900
C210        C  0.44302092  0.39901215  0.00790439     0.85700
O211        O  0.42374583  0.04244241  0.00086783    -0.78400
O212        O  0.42431573  0.08278805  0.01637992    -0.88600
C213        C  0.00350860  0.47985706  0.98953895     0.85300
O214        O  0.48823837  0.06171681  0.02991902    -0.66800
O215        O  0.04310762  0.40924558  0.01862487    -0.86100
C216        C  0.50746264  0.06548868  0.02036407     0.86100
C217        C  0.41793066  0.07553304  0.00532902     1.07700
H218        H  0.01721314  0.48376217  0.01818114     0.39500
O219        O  0.49604206  0.47014141  0.01454083    -1.08800
O220        O  0.43133912  0.42600880  0.01475062    -0.65400
Ni221      Ni  0.46160221  0.45365373  0.02676428     1.26300
O222        O  0.49660010  0.04917561  0.01072975    -0.65700
O223        O  0.49245242  0.40658816  0.03113224    -0.78000
C224        C  0.46474986  0.49468754  0.04773412     0.85500
O225        O  0.48665720  0.48012737  0.03970800    -0.65100
Ni226      Ni  0.01681582  0.42852397  0.00507009     1.27400
Ni227      Ni  0.46042081  0.50706018  0.00697614     1.26100
H228        H  0.40866800  0.49534203  0.02018139     0.40000
O229        O  0.21458457  0.01638368  0.24642094    -0.79900
O230        O  0.18024769  0.52087819  0.19946015    -0.64600
O231        O  0.19218791  0.03128303  0.22422630    -1.11200
C232        C  0.08583763  0.45512337  0.23421391     1.07000
O233        O  0.13994482  0.47411930  0.19413210    -0.77800
O234        O  0.09727733  0.02051697  0.20870538    -0.65400
Ni235      Ni  0.23415316  0.04782205  0.23396788     1.34900
C236        C  0.09548886  0.04288238  0.21766602     0.85700
O237        O  0.25371894  0.02684409  0.20774658    -0.78400
O238        O  0.25347955  0.07647460  0.22094706    -0.88600
C239        C  0.16525017  0.49930790  0.19142845     0.85300
O240        O  0.27211075  0.00989701  0.23097989    -0.66800
O241        O  0.07950853  0.45694543  0.22292929    -0.86100
C242        C  0.26311892  0.47497116  0.23071812     0.86100
C243        C  0.26502395  0.06104082  0.21125910     1.07700
H244        H  0.16580956  0.44371204  0.21985609     0.39500
O245        O  0.15924047  0.47002127  0.21771706    -1.08800
O246        O  0.11368385  0.03529990  0.22727887    -0.65400
Ni247      Ni  0.15426523  0.99862426  0.23200557     1.26300
O248        O  0.23494631  0.46405915  0.22431559    -0.65700
O249        O  0.11761120  0.46474141  0.23881005    -0.78000
C250        C  0.18678626  0.03526059  0.25032346     0.85500
O251        O  0.15382549  0.02604098  0.24680525    -0.65100
Ni252      Ni  0.11194421  0.46666868  0.20875554     1.27400
Ni253      Ni  0.20720410  0.99540031  0.21229735     1.26100
H254        H  0.18007405  0.05364885  0.22062869     0.40000
C255        C  0.22923549  0.44433538  0.14752005     0.87500
C256        C  0.25788190  0.46482651  0.13897472    -0.52800
C257        C  0.27637022  0.43984967  0.13136263     0.10400
C258        C  0.26474624  0.39748732  0.13288182     0.21300
C259        C  0.20202442  0.42109773  0.13906197    -0.53500
C260        C  0.22112907  0.39665654  0.13149591     0.10500
C261        C  0.25347286  0.41259331  0.15371002    -0.53000
C262        C  0.27182103  0.38862300  0.14600431     0.11100
H263        H  0.26355559  0.99581988  0.13917319     0.15600
H264        H  0.28011112  0.37734990  0.12675132     0.01300
H265        H  0.17095527  0.42247236  0.13905371     0.15900
H266        H  0.25600936  0.40950593  0.16332908     0.15700
O267        O  0.41081197  0.15547187  0.24618569    -0.79900
O268        O  0.43805789  0.16446583  0.19808997    -0.64600
O269        O  0.43090340  0.15354186  0.22307048    -1.11200
C270        C  0.03637801  0.23040873  0.23213055     1.07000
O271        O  0.48051647  0.20899524  0.19261709    -0.77800
O272        O  0.52081491  0.16062584  0.20735244    -0.65400
Ni273      Ni  0.39071497  0.13082908  0.23257748     1.34900
C274        C  0.52518159  0.14103124  0.21683579     0.85700
O275        O  0.36562967  0.15998392  0.20726752    -0.78400
O276        O  0.37052087  0.10685254  0.21880694    -0.88600
C277        C  0.45357326  0.18558342  0.19004337     0.85300
O278        O  0.35315603  0.17069231  0.23155542    -0.66800
O279        O  0.04279636  0.22452556  0.22099746    -0.86100
C280        C  0.36109982  0.20621015  0.23116125     0.86100
C281        C  0.35542191  0.12503380  0.21014713     1.07700
H282        H  0.45609037  0.24176074  0.21788271     0.39500
O283        O  0.46204875  0.21501902  0.21611316    -1.08800
O284        O  0.50961507  0.15190438  0.22655981    -0.65400
Ni285      Ni  0.46818127  0.18843883  0.23067313     1.26300
O286        O  0.38707385  0.21893615  0.22412610    -0.65700
O287        O  0.50384209  0.22455646  0.23679005    -0.78000
C288        C  0.44378578  0.14168006  0.24739324     0.85500
O289        O  0.47133561  0.16383172  0.24586955    -0.65100
Ni290      Ni  0.50930816  0.21542851  0.20703343     1.27400
Ni291      Ni  0.41329101  0.18959884  0.21142445     1.26100
H292        H  0.44427646  0.13283470  0.21900090     0.40000
C293        C  0.38651136  0.24455546  0.14684866     0.87500
C294        C  0.35735225  0.22350271  0.13862405    -0.52800
C295        C  0.33799166  0.24803700  0.13107661     0.10400
C296        C  0.34934232  0.29059051  0.13232972     0.21300
C297        C  0.41278030  0.26763818  0.13808871    -0.53500
C298        C  0.39291914  0.29169591  0.13059367     0.10500
C299        C  0.36256060  0.27623801  0.15311436    -0.53000
C300        C  0.34319943  0.29971836  0.14549688     0.11100
H301        H  0.35184053  0.19259039  0.13901961     0.15600
H302        H  0.33329396  0.31039168  0.12625238     0.01300
H303        H  0.44384391  0.26644498  0.13782891     0.15900
H304        H  0.36083432  0.27956011  0.16274032     0.15700
C305        C  0.40649696  0.17500622  0.89802423     0.87500
C306        C  0.42753605  0.14545038  0.88985197    -0.52800
C307        C  0.40340528  0.12630228  0.88221577     0.10400
C308        C  0.36119089  0.13818139  0.88332172     0.21300
C309        C  0.38384555  0.20180367  0.88923561    -0.53500
C310        C  0.36017805  0.18209666  0.88164550     0.10500
C311        C  0.37462308  0.15101108  0.90416907    -0.53000
C312        C  0.35148908  0.13178570  0.89642596     0.11100
H313        H  0.45816819  0.13949720  0.89035085     0.15600
H314        H  0.34177225  0.12233478  0.87713873     0.01300
H315        H  0.38473695  0.23312559  0.88913502     0.15900
H316        H  0.37098252  0.14912682  0.91377789     0.15700
O317        O  0.98629664  0.19232148  0.99622511    -0.79900
O318        O  0.48620084  0.22929268  0.94898813    -0.64600
O319        O  0.49486593  0.21697361  0.97375555    -1.11200
C320        C  0.41970478  0.32440523  0.98356732     1.07000
O321        O  0.44207540  0.27205027  0.94338163    -0.77800
O322        O  0.48845352  0.31167504  0.95888243    -0.65400
Ni323      Ni  0.01389509  0.17383844  0.98285178     1.34900
C324        C  0.50856256  0.31361830  0.96830666     0.85700
O325        O  0.48871271  0.15510100  0.95681698    -0.78400
O326        O  0.03993294  0.15568776  0.96913359    -0.88600
C327        C  0.46556376  0.24482692  0.94084383     0.85300
O328        O  0.47430958  0.13746325  0.98010565    -0.66800
O329        O  0.42444805  0.33161662  0.97242304    -0.86100
C330        C  0.43961937  0.14752580  0.98004983     0.86100
C331        C  0.02308643  0.14378189  0.95976959     1.07700
H332        H  0.40845077  0.24564195  0.96857727     0.39500
O333        O  0.43501822  0.25145099  0.96687815    -1.08800
O334        O  0.49870719  0.29568424  0.97779368    -0.65400
Ni335      Ni  0.46121881  0.25479052  0.98158949     1.26300
O336        O  0.42836104  0.17549864  0.97349914    -0.65700
O337        O  0.42663218  0.29153278  0.98808705    -0.78000
C338        C  0.00234889  0.22327831  0.99901027     0.85500
O339        O  0.48506126  0.25422591  0.99692793    -0.65100
Ni340      Ni  0.43445331  0.29964258  0.95814781     1.27400
Ni341      Ni  0.45956841  0.20276398  0.96156230     1.26100
H342        H  0.01655530  0.22994063  0.97017385     0.40000
C343        C  0.20681711  0.51825599  0.89727098     0.87500
C344        C  0.18670621  0.04825891  0.88899699    -0.52800
C345        C  0.21157368  0.06711139  0.88151545     0.10400
C346        C  0.25355954  0.05467776  0.88291159     0.21300
C347        C  0.22949949  0.49132637  0.88850957    -0.53500
C348        C  0.25400537  0.51094530  0.88112234     0.10500
C349        C  0.23863357  0.04145632  0.90364689    -0.53000
C350        C  0.26258847  0.06041651  0.89609453     0.11100
H351        H  0.15607017  0.05437405  0.88922627     0.15600
H352        H  0.27359532  0.07042600  0.87689177     0.01300
H353        H  0.22755516  0.46007958  0.88814953     0.15900
H354        H  0.24169987  0.04293399  0.91328465     0.15700
O355        O  0.12971907  0.00836920  0.99510209    -0.79900
O356        O  0.12534352  0.96851602  0.94822507    -0.64600
O357        O  0.11745124  0.98251219  0.97299763    -1.11200
C358        C  0.19400631  0.37658315  0.98323394     1.07000
O359        O  0.17042906  0.42615215  0.94294317    -0.77800
O360        O  0.12466806  0.38722978  0.95855393    -0.65400
Ni361      Ni  0.09977800  0.02603018  0.98211687     1.34900
C362        C  0.10485216  0.38534510  0.96802736     0.85700
O363        O  0.12130276  0.04331037  0.95574253    -0.78400
O364        O  0.07167968  0.04311580  0.96872648    -0.88600
C365        C  0.14619476  0.45244272  0.94020512     0.85300
O366        O  0.13819565  0.06301751  0.97859951    -0.66800
O367        O  0.18897843  0.36864722  0.97216542    -0.86100
C368        C  0.17289410  0.05322744  0.97842191     0.86100
C369        C  0.08727943  0.05472444  0.95912066     1.07700
H370        H  0.20408598  0.45472691  0.96773146     0.39500
O371        O  0.17755913  0.44840139  0.96612790    -1.08800
O372        O  0.11473197  0.40379188  0.97739987    -0.65400
Ni373      Ni  0.15156690  0.44550292  0.98090345     1.26300
O374        O  0.18373839  0.02475236  0.97206081    -0.65700
O375        O  0.18688559  0.40966899  0.98756274    -0.78000
C376        C  0.11269061  0.47873392  0.99862446     0.85500
O377        O  0.12719922  0.44655419  0.99616440    -0.65100
Ni378      Ni  0.17853892  0.39963896  0.95775630     1.27400
Ni379      Ni  0.15193944  0.99637552  0.96054002     1.26100
H380        H  0.09542793  0.46935551  0.96967775     0.40000
O381        O  0.47969553  0.46670242  0.79518466    -0.79900
O382        O  0.46282165  0.41940263  0.74201553    -0.64600
O383        O  0.45947337  0.47197014  0.77171014    -1.11200
C384        C  0.35352566  0.38271301  0.77862512     1.07000
O385        O  0.40142711  0.42390377  0.74274228    -0.77800
O386        O  0.34576815  0.43256903  0.75875249    -0.65400
Ni387      Ni  0.50720341  0.47291720  0.78049427     1.34900
C388        C  0.35503269  0.46756313  0.75895565     0.85700
O389        O  0.49975734  0.47901030  0.75057905    -0.78400
O390        O  0.03922063  0.48144194  0.76629254    -0.88600
C391        C  0.43059239  0.40626726  0.73921031     0.85300
O392        O  0.51933709  0.41834461  0.78021305    -0.66800
O393        O  0.36511201  0.36634768  0.76909971    -0.86100
C394        C  0.52231673  0.39787004  0.77085440     0.86100
C395        C  0.03232588  0.48566834  0.75513326     1.07700
H396        H  0.43833344  0.38919724  0.76854407     0.39500
O397        O  0.42574864  0.41141019  0.76500420    -1.08800
O398        O  0.38349984  0.47855256  0.76523129    -0.65400
Ni399      Ni  0.41143664  0.44715794  0.77712900     1.26300
O400        O  0.50437449  0.40713328  0.76129802    -0.65700
O401        O  0.36477821  0.41704175  0.78185184    -0.78000
C402        C  0.45355280  0.44252823  0.79787739     0.85500
O403        O  0.43835728  0.42113811  0.78984476    -0.65100
Ni404      Ni  0.38307235  0.39389914  0.75567859     1.27400
Ni405      Ni  0.46332197  0.44462137  0.75717161     1.26100
H406        H  0.45342141  0.49863540  0.76985381     0.40000
C407        C  0.38680070  0.49728373  0.84179580     0.87500
C408        C  0.41326024  0.01911560  0.85079149    -0.52800
C409        C  0.39349125  0.04280655  0.85842637     0.10400
C410        C  0.34998778  0.04257218  0.85658332     0.21300
C411        C  0.35716302  0.47598000  0.84985056    -0.53500
C412        C  0.33797127  0.50025408  0.85753808     0.10500
C413        C  0.36338663  0.02982539  0.83575228    -0.53000
C414        C  0.34421926  0.05303479  0.84349070     0.11100
H415        H  0.44431460  0.01743868  0.85107567     0.15600
H416        H  0.33415816  0.06212569  0.86277552     0.01300
H417        H  0.35133692  0.44515932  0.84927451     0.15900
H418        H  0.36193039  0.03403165  0.82615326     0.15700
O419        O  0.13948220  0.23450912  0.79539693    -0.79900
O420        O  0.15751166  0.28103569  0.74226941    -0.64600
O421        O  0.15995186  0.22845360  0.77202195    -1.11200
C422        C  0.26550325  0.31840282  0.77880855     1.07000
O423        O  0.21870063  0.27418846  0.74326235    -0.77800
O424        O  0.27401067  0.26728373  0.75954992    -0.65400
Ni425      Ni  0.11221581  0.22710214  0.78073482     1.34900
C426        C  0.26466533  0.23234751  0.75963592     0.85700
O427        O  0.11962270  0.22151350  0.75077291    -0.78400
O428        O  0.08058674  0.21702739  0.76657081    -0.88600
C429        C  0.19037768  0.29206453  0.73921506     0.85300
O430        O  0.09901172  0.28145545  0.78018438    -0.66800
O431        O  0.25396490  0.33420518  0.76917565    -0.86100
C432        C  0.09694580  0.30238813  0.77088175     0.86100
C433        C  0.08751666  0.21314637  0.75540881     1.07700
H434        H  0.18133780  0.31119789  0.76869453     0.39500
O435        O  0.19381901  0.28878902  0.76526401    -1.08800
O436        O  0.23595127  0.22145064  0.76579824    -0.65400
Ni437      Ni  0.20794865  0.25342431  0.77751464     1.26300
O438        O  0.11545897  0.29343329  0.76141774    -0.65700
O439        O  0.25450081  0.28405039  0.78217806    -0.78000
C440        C  0.16546092  0.25880430  0.79813905     0.85500
O441        O  0.18103768  0.27995650  0.79011160    -0.65100
Ni442      Ni  0.23665160  0.30549020  0.75593972     1.27400
Ni443      Ni  0.15629029  0.25572019  0.75742364     1.26100
H444        H  0.16612654  0.20181786  0.77018662     0.40000
C445        C  0.23006191  0.19879961  0.84159982     0.87500
C446        C  0.20309263  0.17526245  0.85008571    -0.52800
C447        C  0.22245290  0.15078177  0.85760872     0.10400
C448        C  0.26601409  0.15197926  0.85620174     0.21300
C449        C  0.25859776  0.21935924  0.85016290    -0.53500
C450        C  0.27727227  0.19436835  0.85774725     0.10500
C451        C  0.25459542  0.16725066  0.83538660    -0.53000
C452        C  0.27326639  0.14327826  0.84309085     0.11100
H453        H  0.17202045  0.17662374  0.85017658     0.15600
H454        H  0.28152697  0.13190957  0.86233421     0.01300
H455        H  0.26419341  0.25027627  0.84997387     0.15900
H456        H  0.25708115  0.16435128  0.82576622     0.15700
C457        C  0.47988412  0.19717051  0.64832057     0.87500
C458        C  0.50894898  0.21777385  0.63991727    -0.52800
C459        C  0.52705409  0.19301979  0.63214464     0.10400
C460        C  0.51469833  0.15083240  0.63334787     0.21300
C461        C  0.45232487  0.17504589  0.63968570    -0.53500
C462        C  0.47110218  0.15081436  0.63196573     0.10500
C463        C  0.50363675  0.16452044  0.65426989    -0.53000
C464        C  0.52171540  0.14085161  0.64638548     0.11100
H465        H  0.51543473  0.24847504  0.64038830     0.15600
H466        H  0.52974712  0.13092334  0.62707072     0.01300
H467        H  0.42126676  0.17681181  0.63973003     0.15900
H468        H  0.50628289  0.16080832  0.66386150     0.15700
O469        O  0.46378810  0.28537399  0.74810103    -0.79900
O470        O  0.43153712  0.27957540  0.69990955    -0.64600
O471        O  0.44112604  0.28909013  0.72507210    -1.11200
C472        C  0.33684693  0.21117575  0.73447233     1.07000
O473        O  0.38930773  0.23476442  0.69461637    -0.77800
O474        O  0.35044143  0.28267304  0.70996336    -0.65400
Ni475      Ni  0.98239942  0.31092586  0.73436841     1.34900
C476        C  0.34639257  0.30183178  0.71954195     0.85700
O477        O  0.00436080  0.28358753  0.70852628    -0.78400
O478        O  0.00138125  0.33575628  0.72052979    -0.88600
C479        C  0.41598339  0.25832506  0.69190491     0.85300
O480        O  0.01941021  0.27095068  0.73262892    -0.66800
O481        O  0.32943600  0.21795774  0.72344260    -0.86100
C482        C  0.01137948  0.23552555  0.73183953     0.86100
C483        C  0.01485822  0.31829211  0.71147413     1.07700
H484        H  0.41560328  0.20129619  0.71954125     0.39500
O485        O  0.40935579  0.22811446  0.71797776    -1.08800
O486        O  0.36256343  0.29053269  0.72917721    -0.65400
Ni487      Ni  0.40460507  0.25359700  0.73276878     1.26300
O488        O  0.98448095  0.22361446  0.72508490    -0.65700
O489        O  0.36968483  0.21689352  0.73892714    -0.78000
C490        C  0.43082124  0.29868264  0.74977142     0.85500
O491        O  0.40328021  0.27647906  0.74827157    -0.65100
Ni492      Ni  0.36163440  0.22785147  0.70925738     1.27400
Ni493      Ni  0.45733736  0.25386445  0.71294949     1.26100
H494        H  0.42740834  0.31011657  0.72127790     0.40000
O495        O  0.15673788  0.41187846  0.74708365    -0.79900
O496        O  0.18967998  0.42041946  0.69928246    -0.64600
O497        O  0.17981338  0.41063453  0.72414870    -1.11200
C498        C  0.28227829  0.49028211  0.73396289     1.07000
O499        O  0.23137797  0.46560566  0.69384021    -0.77800
O500        O  0.27124064  0.41893685  0.70943835    -0.65400
Ni501      Ni  0.13917071  0.38681035  0.73320515     1.34900
C502        C  0.27486090  0.39976354  0.71905248     0.85700
O503        O  0.11625399  0.41514446  0.70764132    -0.78400
O504        O  0.12154316  0.36218342  0.71920879    -0.88600
C505        C  0.20502207  0.44152107  0.69121668     0.85300
O506        O  0.10106941  0.42600477  0.73159880    -0.66800
O507        O  0.28995869  0.48417718  0.72291227    -0.86100
C508        C  0.10833746  0.46169910  0.73108276     0.86100
C509        C  0.10651294  0.38009111  0.71049280     1.07700
H510        H  0.20359319  0.49911597  0.71877983     0.39500
O511        O  0.21035652  0.47242693  0.71722279    -1.08800
O512        O  0.25797171  0.41082131  0.72856263    -0.65400
Ni513      Ni  0.21525831  0.44680473  0.73200333     1.26300
O514        O  0.13479579  0.47479410  0.72433920    -0.65700
O515        O  0.24937523  0.48404386  0.73832119    -0.78000
C516        C  0.19024083  0.39975642  0.74860179     0.85500
O517        O  0.21674367  0.42338079  0.74741726    -0.65100
Ni518      Ni  0.25843781  0.47348871  0.70860951     1.27400
Ni519      Ni  0.16285707  0.44569126  0.71213447     1.26100
H520        H  0.19423601  0.39022071  0.72028981     0.40000
C521        C  0.13704777  0.49642282  0.64752556     0.87500
C522        C  0.10723325  0.47525900  0.63948586    -0.52800
C523        C  0.08794985  0.49969353  0.63183749     0.10400
C524        C  0.10003200  0.04197630  0.63279881     0.21300
C525        C  0.16335237  0.01852514  0.63851343    -0.53500
C526        C  0.14347214  0.04228646  0.63091949     0.10500
C527        C  0.11359942  0.02879187  0.65361322    -0.53000
C528        C  0.09427363  0.05203368  0.64589313     0.11100
H529        H  0.10122213  0.44448258  0.64009481     0.15600
H530        H  0.08411799  0.06164495  0.62664369     0.01300
H531        H  0.19440268  0.01695013  0.63819107     0.15900
H532        H  0.11193565  0.03262135  0.66322060     0.15700
O533        O  0.18598616  0.26987751  0.54537358    -0.79900
O534        O  0.22850443  0.25354344  0.49197037    -0.64600
O535        O  0.17945736  0.24945005  0.52213315    -1.11200
C536        C  0.26880652  0.14247222  0.52900379     1.07000
O537        O  0.23022234  0.19166831  0.49276498    -0.77800
O538        O  0.22005528  0.13600240  0.50870251    -0.65400
Ni539      Ni  0.17916374  0.29772265  0.53073606     1.34900
C540        C  0.18509203  0.14483942  0.50929362     0.85700
O541        O  0.16926371  0.28928837  0.50106776    -0.78400
O542        O  0.16999790  0.33007684  0.51648574    -0.88600
C543        C  0.24557566  0.22264861  0.48962195     0.85300
O544        O  0.23350085  0.30842249  0.53018944    -0.66800
O545        O  0.28536685  0.15469316  0.51960407    -0.86100
C546        C  0.25323424  0.31147614  0.52072747     0.86100
C547        C  0.16377174  0.32256415  0.50544530     1.07700
H548        H  0.26133491  0.22926736  0.51859524     0.39500
O549        O  0.23965194  0.21601904  0.51511984    -1.08800
O550        O  0.17381569  0.17298183  0.51576434    -0.65400
Ni551      Ni  0.20498693  0.20123118  0.52746206     1.26300
O552        O  0.24235532  0.29503585  0.51107425    -0.65700
O553        O  0.23476148  0.15403106  0.53217902    -0.78000
C554        C  0.21040354  0.24368855  0.54805053     0.85500
O555        O  0.23144578  0.22829248  0.53998191    -0.65100
Ni556      Ni  0.25880748  0.17323153  0.50597089     1.27400
Ni557      Ni  0.20511241  0.25336920  0.50738232     1.26100
H558        H  0.15288027  0.24331243  0.52055444     0.40000
C559        C  0.15543542  0.17543023  0.59152458     0.87500
C560        C  0.13354633  0.20159869  0.60066918    -0.52800
C561        C  0.10991395  0.18143293  0.60815143     0.10400
C562        C  0.11040126  0.13774497  0.60609067     0.21300
C563        C  0.17661539  0.14510079  0.59941285    -0.53500
C564        C  0.15258269  0.12549291  0.60698158     0.10500
C565        C  0.12325858  0.15225274  0.58530287    -0.53000
C566        C  0.10013668  0.13273607  0.59297481     0.11100
H567        H  0.13555482  0.23279370  0.60128549     0.15600
H568        H  0.09104843  0.12153010  0.61221029     0.01300
H569        H  0.20725671  0.13925300  0.59886674     0.15900
H570        H  0.11927963  0.15133200  0.57569145     0.15700
O571        O  0.41650769  0.42489408  0.54705629    -0.79900
O572        O  0.37580727  0.43986724  0.49347144    -0.64600
O573        O  0.42357083  0.44587048  0.52382488    -1.11200
C574        C  0.33191247  0.05164567  0.52986291     1.07000
O575        O  0.36964111  0.00125480  0.49372247    -0.77800
O576        O  0.38112683  0.05738616  0.50934271    -0.65400
Ni577      Ni  0.42441552  0.39736503  0.53245033     1.34900
C578        C  0.41625559  0.04914190  0.51027908     0.85700
O579        O  0.43519597  0.40581878  0.50282154    -0.78400
O580        O  0.43518754  0.36526489  0.51831601    -0.88600
C581        C  0.35555626  0.46890231  0.49149487     0.85300
O582        O  0.37034107  0.38458064  0.53153683    -0.66800
O583        O  0.31573311  0.03827576  0.52059760    -0.86100
C584        C  0.35124624  0.38172874  0.52190669     0.86100
C585        C  0.44118822  0.37269414  0.50726559     1.07700
H586        H  0.34175166  0.96428441  0.52009546     0.39500
O587        O  0.36298569  0.97800224  0.51652183    -1.08800
O588        O  0.42771248  0.02192714  0.51707919    -0.65400
Ni589      Ni  0.39707385  0.99403695  0.52889788     1.26300
O590        O  0.36211823  0.39928426  0.51247658    -0.65700
O591        O  0.36616644  0.04107744  0.53319471    -0.78000
C592        C  0.39284656  0.95176535  0.54975119     0.85500
O593        O  0.37153467  0.96732592  0.54173069    -0.65100
Ni594      Ni  0.34225620  0.01974923  0.50706565     1.27400
Ni595      Ni  0.39863894  0.44126212  0.50895242     1.26100
H596        H  0.45012015  0.45239803  0.52233287     0.40000
C597        C  0.45575682  0.01912310  0.59237620     0.87500
C598        C  0.47926653  0.49230445  0.60099518    -0.52800
C599        C  0.00351831  0.51202698  0.60840978     0.10400
C600        C  0.00223380  0.05598099  0.60670292     0.21300
C601        C  0.43531128  0.04836459  0.60078181    -0.53500
C602        C  0.46002119  0.06752207  0.60822775     0.10500
C603        C  0.98681053  0.04330153  0.58596523    -0.53000
C604        C  0.01065552  0.06244531  0.59349380     0.11100
H605        H  0.97783751  0.46102790  0.60130589     0.15600
H606        H  0.02214740  0.07189444  0.61271089     0.01300
H607        H  0.40457050  0.05392591  0.60063342     0.15900
H608        H  0.98948808  0.04524226  0.57632404     0.15700
C609        C  0.91184417  0.94367658  0.57107626    -0.12400
C610        C  0.39594093  0.96747841  0.56212337     0.09800
C611        C  0.39277716  0.00736040  0.56442082    -0.12400
C612        C  0.40914140  0.02332321  0.57480275    -0.12400
C613        C  0.42926844  0.99990191  0.58310114     0.09800
C614        C  0.92821502  0.95949783  0.58137705    -0.12400
H615        H  0.91445228  0.91272370  0.56966820     0.13800
H616        H  0.38091434  0.02663400  0.55773155     0.13800
H617        H  0.40886147  0.05450829  0.57586674     0.13800
H618        H  0.94208810  0.93963565  0.58742679     0.13800
C619        C  0.04138261  0.08725541  0.58971158    -0.12300
C620        C  0.06848751  0.10872850  0.58948553    -0.13900
C621        C  0.28833002  0.33560563  0.52092160    -0.12300
C622        C  0.31675147  0.35677351  0.52144004    -0.13900
C623        C  0.31076357  0.08328313  0.53541403    -0.12300
C624        C  0.28915834  0.11119275  0.53506071    -0.13900
C625        C  0.19247925  0.25178147  0.56940470    -0.12400
C626        C  0.20895162  0.22842534  0.56048567     0.09800
C627        C  0.21515977  0.18902160  0.56302773    -0.12400
C628        C  0.20106094  0.17276260  0.57368916    -0.12400
C629        C  0.18052463  0.19547886  0.58205504     0.09800
C630        C  0.17853298  0.23571737  0.57999612    -0.12400
H631        H  0.18753199  0.28235460  0.56778955     0.13800
H632        H  0.22767538  0.17011428  0.55636753     0.13800
H633        H  0.20338198  0.14172605  0.57494414     0.13800
H634        H  0.16362702  0.25505188  0.58595385     0.13800
C635        C  0.16337929  0.09429938  0.61499584    -0.12300
C636        C  0.16034467  0.06862829  0.62230768    -0.13900
C637        C  0.03043613  0.49442317  0.61678768    -0.12300
C638        C  0.05635895  0.48984662  0.62391637    -0.13900
C639        C  0.21291183  0.95586788  0.66940346    -0.12400
C640        C  0.18946167  0.44287494  0.67881435     0.09800
C641        C  0.14980602  0.43963528  0.67670949    -0.12400
C642        C  0.13363617  0.45348454  0.66601514    -0.12400
C643        C  0.15660555  0.47103464  0.65713922     0.09800
C644        C  0.19687384  0.96932035  0.65867186    -0.12400
H645        H  0.24370030  0.95820060  0.67067329     0.13800
H646        H  0.13083521  0.42977901  0.68372902     0.13800
H647        H  0.10263130  0.45361965  0.66511969     0.13800
H648        H  0.21640447  0.98077812  0.65211120     0.13800
C649        C  0.32148367  0.33666404  0.71956636    -0.12300
C650        C  0.29994151  0.36507294  0.71935127    -0.13900
C651        C  0.04616054  0.33864350  0.70557413    -0.12300
C652        C  0.07403745  0.35998770  0.70518309    -0.13900
C653        C  0.44975384  0.09807759  0.61652031    -0.12300
C654        C  0.45318810  0.12390574  0.62374713    -0.13900
C655        C  0.05803606  0.20262633  0.62399961    -0.12300
C656        C  0.08359548  0.19849999  0.61675100    -0.13900
C657        C  0.06898930  0.08284080  0.64941884    -0.12300
C658        C  0.04674814  0.10950796  0.64962541    -0.13900
C659        C  0.42188714  0.22653608  0.65976889    -0.12400
C660        C  0.46191603  0.22334268  0.65801266     0.09800
C661        C  0.48603987  0.24086537  0.66660537    -0.12400
C662        C  0.47096738  0.25672556  0.67720348    -0.12400
C663        C  0.43127274  0.25564241  0.67947300     0.09800
C664        C  0.40693665  0.24222629  0.67033948    -0.12400
H665        H  0.40159687  0.21493817  0.65346579     0.13800
H666        H  0.01696813  0.23941705  0.66555716     0.13800
H667        H  0.99063158  0.26650163  0.68404542     0.13800
H668        H  0.37613510  0.24122148  0.67174730     0.13800
C669        C  0.28470408  0.20799633  0.75118326    -0.12300
C670        C  0.30636489  0.20262789  0.74285076    -0.13900
C671        C  0.05670912  0.20422516  0.74725423    -0.12300
C672        C  0.03332599  0.21025935  0.73947232    -0.13900
C673        C  0.19521492  0.33204930  0.73914984    -0.12300
C674        C  0.19707092  0.36287159  0.74379763    -0.13900
C675        C  0.21953180  0.26066977  0.81320683    -0.12400
C676        C  0.18018116  0.25692908  0.81064444     0.09800
C677        C  0.15611256  0.24185139  0.81959551    -0.12400
C678        C  0.17129036  0.22657816  0.83018748    -0.12400
C679        C  0.21132082  0.22540098  0.83213520     0.09800
C680        C  0.23487246  0.24511927  0.82383105    -0.12400
H681        H  0.23896710  0.27216115  0.80655398     0.13800
H682        H  0.12552389  0.23902815  0.81799848     0.13800
H683        H  0.15130623  0.21338867  0.83628469     0.13800
H684        H  0.26574687  0.24550361  0.82507712     0.13800
C685        C  0.31996398  0.08481081  0.83994996    -0.12300
C686        C  0.29836946  0.11208162  0.83968106    -0.13900
C687        C  0.42746627  0.36630832  0.74026789    -0.12300
C688        C  0.42559742  0.33606896  0.74525493    -0.13900
C689        C  0.33457746  0.49230436  0.75067565    -0.12300
C690        C  0.31265599  0.49835323  0.74243988    -0.13900
C691        C  0.06337288  0.49261244  0.74688554    -0.12300
C692        C  0.08628277  0.48592815  0.73901448    -0.13900
C693        C  0.32305348  0.36187330  0.78470181    -0.12300
C694        C  0.29580981  0.33977964  0.78477903    -0.13900
C695        C  0.04846832  0.36400813  0.77090381    -0.12300
C696        C  0.07123347  0.33659167  0.77090482    -0.13900
C697        C  0.39841980  0.44183431  0.81241095    -0.12400
C698        C  0.43806296  0.44448090  0.81026489     0.09800
C699        C  0.46185632  0.45740385  0.81960038    -0.12400
C700        C  0.44620412  0.47063796  0.83039958    -0.12400
C701        C  0.40601933  0.47217151  0.83209131     0.09800
C702        C  0.38268149  0.45523306  0.82320253    -0.12400
H703        H  0.37919113  0.43253180  0.80539437     0.13800
H704        H  0.49263484  0.95961516  0.81824072     0.12200
H705        H  0.46597361  0.98185218  0.83692360     0.13800
H706        H  0.35170152  0.45557578  0.82417404     0.13800
C707        C  0.30686668  0.48983900  0.86558072    -0.12300
C708        C  0.28095947  0.49352238  0.87275291    -0.13900
C709        C  0.20515085  0.12343335  0.86586198    -0.12300
C710        C  0.20168052  0.09772176  0.87315785    -0.13900
C711        C  0.17847521  0.95903740  0.90829527    -0.12400
C712        C  0.18023985  0.49937579  0.90657980     0.09800
C713        C  0.16096514  0.52311454  0.91496198    -0.12400
C714        C  0.14508502  0.50741990  0.92543826    -0.12400
C715        C  0.14812990  0.46756263  0.92777695     0.09800
C716        C  0.16281238  0.94351015  0.91875356    -0.12400
H717        H  0.19151452  0.93899298  0.90213726     0.13800
H718        H  0.16113626  0.55430538  0.91389503     0.13800
H719        H  0.13393231  0.52688999  0.93217436     0.13800
H720        H  0.16512528  0.91255160  0.92021744     0.13800
C721        C  0.04296316  0.33836121  0.96837117    -0.12300
C722        C  0.07077386  0.36017730  0.96828801    -0.13900
C723        C  0.04367604  0.11304981  0.95354468    -0.12300
C724        C  0.06586704  0.08558827  0.95323904    -0.13900
C725        C  0.41057599  0.06919199  0.86697821    -0.12300
C726        C  0.41394955  0.09502448  0.87421001    -0.13900
C727        C  0.30760669  0.20407346  0.86610257    -0.12300
C728        C  0.33317016  0.19971351  0.87334154    -0.13900
C729        C  0.29375625  0.08479162  0.89978608    -0.12300
C730        C  0.32058987  0.10664448  0.89986848    -0.13900
C731        C  0.44964799  0.17119768  0.91638850    -0.12400
C732        C  0.43238815  0.19436841  0.90745801     0.09800
C733        C  0.43599849  0.23491546  0.90857317    -0.12400
C734        C  0.45083031  0.25142293  0.91903751    -0.12400
C735        C  0.46329306  0.22806714  0.92858610     0.09800
C736        C  0.46479123  0.18778942  0.92682926    -0.12400
H737        H  0.44841800  0.13991615  0.91574598     0.13800
H738        H  0.42540271  0.25446762  0.90182435     0.13800
H739        H  0.45004882  0.28264578  0.91999750     0.13800
H740        H  0.47432773  0.16884665  0.93393798     0.13800
C741        C  0.39850507  0.18455791  0.17541617    -0.12400
C742        C  0.43805911  0.18790562  0.17767028     0.09800
C743        C  0.46168125  0.20265738  0.16855654    -0.12400
C744        C  0.44593047  0.21770586  0.15803088    -0.12400
C745        C  0.40581346  0.21868096  0.15630386     0.09800
C746        C  0.38262904  0.19964936  0.16483850    -0.12400
H747        H  0.37941478  0.17356261  0.18224488     0.13800
H748        H  0.49238901  0.20527801  0.16995144     0.13800
H749        H  0.46556665  0.23070110  0.15178539     0.13800
H750        H  0.35167227  0.19944839  0.16378630     0.13800
C751        C  0.29647468  0.35739051  0.14948770    -0.12300
C752        C  0.31828255  0.33045649  0.14922112    -0.13900
C753        C  0.04976994  0.10620777  0.21678775    -0.12300
C754        C  0.07095471  0.07768023  0.21707090    -0.13900
C755        C  0.29523482  0.08298829  0.20524453    -0.12300
C756        C  0.32267237  0.10504982  0.20485711    -0.13900
C757        C  0.23462136  0.48847586  0.16565590    -0.12400
C758        C  0.21082981  0.47061446  0.15704906     0.09800
C759        C  0.17078030  0.47244028  0.15888230    -0.12400
C760        C  0.15569100  0.48579852  0.16971601    -0.12400
C761        C  0.17993690  0.49868827  0.17892621     0.09800
C762        C  0.21939623  0.50215020  0.17650026    -0.12400
H763        H  0.26553969  0.48836144  0.16448804     0.13800
H764        H  0.15063248  0.96121239  0.15246878     0.13800
H765        H  0.12497941  0.98349095  0.17122054     0.13800
H766        H  0.23893495  0.51190690  0.18337921     0.13800
C767        C  0.07290638  0.48079057  0.99730301    -0.12300
C768        C  0.04205173  0.48306859  0.99284532    -0.13900
C769        C  0.41805551  0.37793761  0.99995668    -0.12300
C770        C  0.41171800  0.35538159  0.99190887    -0.13900
C771        C  0.40970841  0.10642836  0.99695544    -0.12300
C772        C  0.41536266  0.12809659  0.98861016    -0.13900
C773        C  0.33235499  0.44664981  0.11573502    -0.12300
C774        C  0.30673603  0.44979584  0.12301714    -0.13900
C775        C  0.41466601  0.34466841  0.11508710    -0.12300
C776        C  0.41025824  0.31882670  0.12228167    -0.13900
C777        C  0.43117203  0.48421907  0.07963226    -0.12400
C778        C  0.43093130  0.44369856  0.08126047     0.09800
C779        C  0.45022918  0.42101850  0.07259191    -0.12400
C780        C  0.46521463  0.43780303  0.06209268    -0.12400
C781        C  0.46144140  0.47781734  0.06000030     0.09800
C782        C  0.44585933  0.50081136  0.06917486    -0.12400
H783        H  0.41830518  0.00377236  0.08599264     0.13800
H784        H  0.45111043  0.38979253  0.07352505     0.13800
H785        H  0.47678796  0.41907132  0.05522618     0.13800
H786        H  0.44293771  0.03188528  0.06795721     0.13800
C787        C  0.04206993  0.09004808  0.02029280    -0.12300
C788        C  0.07070098  0.11082701  0.02014050    -0.13900
C789        C  0.06916462  0.33591976  0.03359204    -0.12300
C790        C  0.04761715  0.36400128  0.03354926    -0.13900
C791        C  0.07153295  0.22229386  0.99143823    -0.12300
C792        C  0.04131748  0.22394303  0.99627136    -0.13900
C793        C  0.20304479  0.09386112  0.99533460    -0.12300
C794        C  0.19738741  0.07269002  0.98688885    -0.13900
C795        C  0.20244825  0.34605335  0.99170332    -0.12300
C796        C  0.19667550  0.32327639  0.99975126    -0.13900
C797        C  0.19967616  0.34410079  0.11592550    -0.12300
C798        C  0.20341082  0.36963981  0.12324738    -0.13900
C799        C  0.30702394  0.23754845  0.12304160    -0.12300
C800        C  0.28098874  0.24104147  0.11592991    -0.13900
C801        C  0.29342219  0.33358987  0.08962967    -0.12300
C802        C  0.32079733  0.35464985  0.08939658    -0.13900
C803        C  0.18327979  0.20719007  0.07934425    -0.12400
C804        C  0.18226372  0.24732389  0.08164811     0.09800
C805        C  0.16335636  0.27121451  0.07320498    -0.12400
C806        C  0.15015831  0.25622885  0.06226731    -0.12400
C807        C  0.15491408  0.21677674  0.05956324     0.09800
C808        C  0.17017159  0.19233611  0.06845873    -0.12400
H809        H  0.19653338  0.18698510  0.08542130     0.13800
H810        H  0.16185159  0.30221422  0.07463179     0.13800
H811        H  0.13904241  0.27601428  0.05559564     0.13800
H812        H  0.17417351  0.16171742  0.06671068     0.13800
C813        C  0.44866617  0.09337952  0.49471470    -0.12300
C814        C  0.44172131  0.07063471  0.50264094    -0.13900
C815        C  0.44281335  0.31985876  0.49066966    -0.12300
C816        C  0.44896692  0.34178925  0.49889579    -0.13900
C817        C  0.31536086  0.22197547  0.49639278    -0.12300
C818        C  0.28507479  0.22351126  0.49155586    -0.13900
C819        C  0.41905139  0.19142033  0.42124412    -0.12400
C820        C  0.40363483  0.21589441  0.43011428     0.09800
C821        C  0.40036164  0.25557076  0.42750393    -0.12400
C822        C  0.41563014  0.27073442  0.41684990    -0.12400
C823        C  0.43514185  0.24684545  0.40856274     0.09800
C824        C  0.43444206  0.20653143  0.41062968    -0.12400
H825        H  0.92167854  0.16058346  0.42288444     0.13800
H826        H  0.38899080  0.27538269  0.43411161     0.13800
H827        H  0.41510111  0.30182868  0.41555023     0.13800
H828        H  0.94787573  0.18638828  0.40457032     0.13800
C829        C  0.07225246  0.35731553  0.40104691    -0.12300
C830        C  0.04581454  0.33508612  0.40112189    -0.13900
C831        C  0.28593808  0.46686009  0.49919819    -0.12300
C832        C  0.31695873  0.46532930  0.49480611    -0.13900
C833        C  0.16245589  0.37494849  0.48867587    -0.12300
C834        C  0.15624707  0.35337008  0.49699725    -0.13900
C835        C  0.15486660  0.10073540  0.49334396    -0.12300
C836        C  0.16021735  0.12340763  0.50142647    -0.13900
C837        C  0.29022209  0.08597717  0.47015745    -0.12300
C838        C  0.31869565  0.10715139  0.47011194    -0.13900
C839        C  0.31746161  0.33516730  0.45504977    -0.12300
C840        C  0.29497277  0.36253995  0.45502829    -0.13900
C841        C  0.21561007  0.43933130  0.42743127    -0.12400
C842        C  0.21235751  0.47930358  0.42954825     0.09800
C843        C  0.19865632  0.50296834  0.42023097    -0.12400
C844        C  0.18439963  0.48681480  0.40964367    -0.12400
C845        C  0.18270222  0.44626270  0.40813627     0.09800
C846        C  0.20109649  0.42306488  0.41685019    -0.12400
H847        H  0.22599149  0.42019009  0.43437881     0.13800
H848        H  0.19633568  0.53401360  0.42148317     0.13800
H849        H  0.17257145  0.50654011  0.40314746     0.13800
H850        H  0.20110219  0.39182377  0.41595684     0.13800
C851        C  0.28374234  0.45019046  0.23897361    -0.12300
C852        C  0.30628866  0.44465675  0.24709278    -0.13900
C853        C  0.03351888  0.45240787  0.25101690    -0.12300
C854        C  0.05507273  0.44688933  0.24261789    -0.13900
C855        C  0.44402237  0.07321496  0.23835498    -0.12300
C856        C  0.44808495  0.10432814  0.24266752    -0.13900
C857        C  0.05722168  0.45457805  0.36690139    -0.12300
C858        C  0.08247839  0.45103495  0.37427497    -0.13900
C859        C  0.45637544  0.37206638  0.36784829    -0.12300
C860        C  0.45363887  0.34573862  0.37499539    -0.13900
C861        C  0.48292951  0.48957207  0.32444827    -0.12400
C862        C  0.45963045  0.47051023  0.33296883     0.09800
C863        C  0.41973123  0.46975279  0.33081089    -0.12400
C864        C  0.40449074  0.48330916  0.31999058    -0.12400
C865        C  0.42833592  0.49858410  0.31099291     0.09800
C866        C  0.46755019  0.50331028  0.31359810    -0.12400
H867        H  0.01375225  0.49089006  0.32575716     0.13800
H868        H  0.40006341  0.45628570  0.33695711     0.13800
H869        H  0.37407369  0.47934336  0.31833002     0.13800
H870        H  0.98690082  0.51452175  0.30687565     0.13800
C871        C  0.29961126  0.10728752  0.27167449    -0.12300
C872        C  0.32071953  0.07856752  0.27143121    -0.13900
C873        C  0.04450613  0.08508900  0.28403158    -0.12300
C874        C  0.07219783  0.10680372  0.28361155    -0.13900
C875        C  0.19403702  0.07485833  0.25083351    -0.12300
C876        C  0.19950816  0.10530559  0.24619493    -0.13900
C877        C  0.31810763  0.23706040  0.24770778    -0.12300
C878        C  0.34033751  0.23037847  0.23957430    -0.13900
C879        C  0.09015326  0.23183581  0.24840705    -0.12300
C880        C  0.06766637  0.23800382  0.24032741    -0.13900
C881        C  0.03569335  0.24185153  0.37452005    -0.12300
C882        C  0.06099291  0.23801994  0.36712549    -0.13900
C883        C  0.16075469  0.32149213  0.36717310    -0.12300
C884        C  0.16343902  0.34753084  0.37442691    -0.13900
C885        C  0.06857734  0.33222189  0.34094336    -0.12300
C886        C  0.04703292  0.35940343  0.34108915    -0.13900
C887        C  0.13372035  0.20139963  0.32428184    -0.12400
C888        C  0.15704815  0.22161729  0.33254792     0.09800
C889        C  0.19690379  0.22224163  0.33027858    -0.12400
C890        C  0.21204494  0.20712767  0.31964251    -0.12400
C891        C  0.18812567  0.19087494  0.31082726     0.09800
C892        C  0.14899070  0.18623795  0.31357592    -0.12400
H893        H  0.10295564  0.19996543  0.32568630     0.13800
H894        H  0.21665828  0.23652011  0.33621221     0.13800
H895        H  0.24247014  0.21082302  0.31792826     0.13800
H896        H  0.12960059  0.17400206  0.30703899     0.13800
C897        C  0.13805524  0.74681891  0.34236748     0.87500
C898        C  0.16451874  0.77047764  0.35102021    -0.52800
C899        C  0.14455120  0.79382151  0.35877849     0.10400
C900        C  0.10106895  0.79156912  0.35733761     0.21300
C901        C  0.11008268  0.72488889  0.35085643    -0.53500
C902        C  0.09086026  0.74884370  0.35864933     0.10500
C903        C  0.11277642  0.77815451  0.33641463    -0.53000
C904        C  0.09368664  0.80102389  0.34427567     0.11100
H905        H  0.19562430  0.76997397  0.35101374     0.15600
H906        H  0.08505883  0.81084495  0.36357434     0.01300
H907        H  0.10534497  0.69384577  0.35048887     0.15900
H908        H  0.11030060  0.78193746  0.32681867     0.15700
O909        O  0.22976260  0.71135202  0.29548536    -0.79900
O910        O  0.22189988  0.66495779  0.24235200    -0.64600
O911        O  0.21152899  0.71635794  0.27198351    -1.11200
C912        C  0.10427295  0.62668476  0.27786482     1.07000
O913        O  0.16167697  0.65546785  0.24173330    -0.77800
O914        O  0.10331053  0.67183749  0.25592664    -0.65400
Ni915      Ni  0.25883630  0.71710792  0.28107769     1.34900
C916        C  0.11101409  0.70735672  0.25662826     0.85700
O917        O  0.25378818  0.72577981  0.25138610    -0.78400
O918        O  0.29274596  0.72550688  0.26713768    -0.88600
C919        C  0.19492846  0.64210432  0.24091607     0.85300
O920        O  0.27062007  0.66225111  0.28097820    -0.66800
O921        O  0.11862330  0.60847348  0.26907874    -0.86100
C922        C  0.27493594  0.64233108  0.27155050     0.86100
C923        C  0.28651888  0.73097519  0.25597148     1.07700
H924        H  0.19361748  0.63413705  0.26926869     0.39500
O925        O  0.18040333  0.65472655  0.26507988    -1.08800
O926        O  0.13665512  0.71989755  0.26380490    -0.65400
Ni927      Ni  0.16263370  0.69099911  0.27664465     1.26300
O928        O  0.25928970  0.65301388  0.26180542    -0.65700
O929        O  0.11500144  0.66142103  0.28075659    -0.78000
C930        C  0.20277740  0.68817626  0.29825522     0.85500
O931        O  0.18696204  0.66669568  0.29032017    -0.65100
Ni932      Ni  0.14049231  0.63170638  0.25538033     1.27400
Ni933      Ni  0.21803654  0.68962291  0.25750219     1.26100
H934        H  0.20552609  0.74304881  0.27014293     0.40000
C935        C  0.47895684  0.94565711  0.34276270     0.87500
C936        C  0.45273602  0.92296929  0.35170769    -0.52800
C937        C  0.47283439  0.89950079  0.35938658     0.10400
C938        C  0.51627884  0.90086578  0.35763379     0.21300
C939        C  0.50787269  0.96747101  0.35090143    -0.53500
C940        C  0.52721917  0.94353429  0.35864643     0.10500
C941        C  0.50320179  0.91365762  0.33676218    -0.53000
C942        C  0.52252037  0.89077231  0.34455913     0.11100
H943        H  0.42165737  0.92412730  0.35194620     0.15600
H944        H  0.53242890  0.88158447  0.36384515     0.01300
H945        H  0.51288006  0.49839666  0.35038366     0.15900
H946        H  0.50497989  0.90956476  0.32716546     0.15700
O947        O  0.38798188  0.97597835  0.29564066    -0.79900
O948        O  0.40536391  0.52346072  0.24257121    -0.64600
O949        O  0.40921029  0.97032669  0.27226758    -1.11200
C950        C  0.01317910  0.56316789  0.27864476     1.07000
O951        O  0.46637715  0.51608398  0.24349823    -0.77800
O952        O  0.02210570  0.51149296  0.25958603    -0.65400
Ni953      Ni  0.36121311  0.96778821  0.28087972     1.34900
C954        C  0.01358430  0.97626664  0.25966909     0.85700
O955        O  0.36892674  0.96287390  0.25088466    -0.78400
O956        O  0.32996151  0.95682747  0.26662079    -0.88600
C957        C  0.43823263  0.53354315  0.23921923     0.85300
O958        O  0.34653065  0.52181855  0.28032843    -0.66800
O959        O  0.00046106  0.57834859  0.26906705    -0.86100
C960        C  0.34508096  0.54343951  0.27116364     0.86100
C961        C  0.33691527  0.95368930  0.25542358     1.07700
H962        H  0.42881455  0.55357008  0.26892793     0.39500
O963        O  0.44162721  0.53134387  0.26550569    -1.08800
O964        O  0.98550545  0.96485037  0.26604315    -0.65400
Ni965      Ni  0.45672079  0.49650276  0.27778373     1.26300
O966        O  0.36369011  0.53486013  0.26169502    -0.65700
O967        O  0.00271401  0.52880951  0.28229434    -0.78000
C968        C  0.41374778  0.00048131  0.29844440     0.85500
O969        O  0.42914222  0.02206745  0.29045978    -0.65100
Ni970      Ni  0.98367522  0.54857865  0.25599083     1.27400
Ni971      Ni  0.40483537  0.49768116  0.25766219     1.26100
H972        H  0.41601293  0.94385403  0.27042264     0.40000
O973        O  0.22954975  0.93852524  0.49691731    -0.79900
O974        O  0.23465227  0.97929913  0.45007005    -0.64600
O975        O  0.24216894  0.96514222  0.47489994    -1.11200
C976        C  0.16433047  0.57041966  0.48490797     1.07000
O977        O  0.18968664  0.02141860  0.44460003    -0.77800
O978        O  0.23515721  0.56017401  0.46050011    -0.65400
Ni979      Ni  0.25986785  0.92138470  0.48396511     1.34900
C980        C  0.25507626  0.56177538  0.46998151     0.85700
O981        O  0.23888397  0.90440380  0.45760566    -0.78400
O982        O  0.28841354  0.90470687  0.47060858    -0.88600
C983        C  0.21394354  0.99503352  0.44195548     0.85300
O984        O  0.22151893  0.88456346  0.48024917    -0.66800
O985        O  0.16984633  0.57852704  0.47386177    -0.86100
C986        C  0.18686517  0.89450132  0.48019457     0.86100
C987        C  0.27300969  0.89310023  0.46097831     1.07700
H988        H  0.15557355  0.99276121  0.46939121     0.39500
O989        O  0.18212612  0.99914621  0.46787096    -1.08800
O990        O  0.24467866  0.54367728  0.47939535    -0.65400
Ni991      Ni  0.20762172  0.00189327  0.48274604     1.26300
O992        O  0.17601688  0.92309399  0.47387980    -0.65700
O993        O  0.17186427  0.53747181  0.48929228    -0.78000
C994        C  0.24608838  0.96826743  0.50051865     0.85500
O995        O  0.23117872  0.00035441  0.49814228    -0.65100
Ni996      Ni  0.18114123  0.54779186  0.45946105     1.27400
Ni997      Ni  0.20796631  0.95134569  0.46236409     1.26100
H998        H  0.26418777  0.97841828  0.47162949     0.40000
C999        C  0.15690776  0.92678235  0.39871979     0.87500
C1000       C  0.17773444  0.89782046  0.39023787    -0.52800
C1001       C  0.15325035  0.87848512  0.38270281     0.10400
C1002       C  0.11101136  0.88976125  0.38423080     0.21300
C1003       C  0.13318776  0.95352683  0.39018767    -0.53500
C1004       C  0.10935567  0.93370083  0.38268539     0.10500
C1005       C  0.12601864  0.90204619  0.40501286    -0.53000
C1006       C  0.10255062  0.88284315  0.39739650     0.11100
H1007       H  0.20848784  0.89240825  0.39045832     0.15600
H1008       H  0.09126643  0.87385221  0.37816565     0.01300
H1009       H  0.13382956  0.48480744  0.39005912     0.15900
H1010       H  0.12320839  0.89969546  0.41464194     0.15700
O1011       O  0.36981474  0.75448860  0.49780801    -0.79900
O1012       O  0.37758859  0.71762702  0.45029253    -0.64600
O1013       O  0.36470798  0.72964013  0.47521556    -1.11200
C1014       C  0.44079749  0.62395346  0.48625040     1.07000
O1015       O  0.42270582  0.67440160  0.44578518    -0.77800
O1016       O  0.37409728  0.63445121  0.46089741    -0.65400
Ni1017     Ni  0.34423967  0.77284680  0.48409849     1.34900
C1018       C  0.35311134  0.63218096  0.47016517     0.85700
O1019       O  0.37213328  0.79203667  0.45836128    -0.78400
O1020       O  0.31973316  0.79097091  0.47017421    -0.88600
C1021       C  0.39967779  0.70129642  0.44263082     0.85300
O1022       O  0.38405175  0.80960816  0.48195949    -0.66800
O1023       O  0.43702206  0.61620246  0.47513141    -0.86100
C1024       C  0.41884313  0.79982699  0.48214731     0.86100
C1025       C  0.33751179  0.80351989  0.46108646     1.07700
H1026       H  0.45217407  0.70215329  0.47118460     0.39500
O1027       O  0.42590987  0.69596651  0.46918226    -1.08800
O1028       O  0.36189486  0.65053935  0.47965545    -0.65400
Ni1029     Ni  0.39802990  0.69248481  0.48359308     1.26300
O1030       O  0.43074165  0.77176761  0.47577946    -0.65700
O1031       O  0.43273491  0.65678229  0.49059762    -0.78000
C1032       C  0.35352664  0.72324015  0.50010941     0.85500
O1033       O  0.37210559  0.69276615  0.49860524    -0.65100
Ni1034     Ni  0.42824181  0.64746524  0.46070084     1.27400
Ni1035     Ni  0.40145558  0.74437663  0.46344509     1.26100
H1036       H  0.34370076  0.71629115  0.47138416     0.40000
C1037       C  0.46103632  0.76595090  0.39901508     0.87500
C1038       C  0.43998315  0.79484544  0.39056929    -0.52800
C1039       C  0.46423646  0.81433182  0.38301991     0.10400
C1040       C  0.50656375  0.80307803  0.38441462     0.21300
C1041       C  0.48465094  0.73921282  0.39043527    -0.53500
C1042       C  0.50844400  0.75911129  0.38286945     0.10500
C1043       C  0.49203208  0.79069285  0.40522803    -0.53000
C1044       C  0.01535248  0.80988810  0.39755503     0.11100
H1045       H  0.40924525  0.80033727  0.39088893     0.15600
H1046       H  0.02609909  0.81913973  0.37831270     0.01300
H1047       H  0.48380537  0.70788009  0.39036306     0.15900
H1048       H  0.49507822  0.79294575  0.41485101     0.15700
C1049       C  0.20725620  0.76624624  0.09140330     0.87500
C1050       C  0.23019962  0.73911278  0.10005225    -0.52800
C1051       C  0.25388978  0.75863944  0.10768738     0.10400
C1052       C  0.25253878  0.80255360  0.10622411     0.21300
C1053       C  0.18603212  0.79501083  0.09982854    -0.53500
C1054       C  0.21022969  0.81386710  0.10754686     0.10500
C1055       C  0.23867957  0.79086082  0.08536325    -0.53000
C1056       C  0.26190890  0.80959614  0.09313206     0.11100
H1057       H  0.22905043  0.70780653  0.10016674     0.15600
H1058       H  0.27204635  0.81820207  0.11242601     0.01300
H1059       H  0.15529703  0.80050956  0.09949355     0.15900
H1060       H  0.24231592  0.79308020  0.07575754     0.15700
O1061       O  0.17529781  0.67535901  0.04409712    -0.79900
O1062       O  0.12789117  0.69224194  0.99108820    -0.64600
O1063       O  0.17959146  0.69693237  0.02081105    -1.11200
C1064       C  0.08965820  0.80399396  0.02783098     1.07000
O1065       O  0.12655496  0.75403525  0.99163509    -0.77800
O1066       O  0.13729302  0.81025749  0.00728575    -0.65400
Ni1067     Ni  0.18100305  0.64812332  0.02932063     1.34900
C1068       C  0.17233786  0.80166801  0.00771324     0.85700
O1069       O  0.18778855  0.65712942  0.99961262    -0.78400
O1070       O  0.18949644  0.61610602  0.01497154    -0.88600
C1071       C  0.11066365  0.72304568  0.98883831     0.85300
O1072       O  0.12673950  0.63653563  0.02917918    -0.66800
O1073       O  0.07276090  0.79113921  0.01859571    -0.86100
C1074       C  0.10592214  0.63453506  0.01990482     0.86100
C1075       C  0.19462016  0.62399205  0.00390298     1.07700
H1076       H  0.09735744  0.71702908  0.01793014     0.39500
O1077       O  0.11870254  0.73020012  0.01422501    -1.08800
O1078       O  0.18413574  0.77366370  0.01418104    -0.65400
Ni1079     Ni  0.15429843  0.74537250  0.02625657     1.26300
O1080       O  0.11573400  0.65165678  0.01027833    -0.65700
O1081       O  0.12392095  0.79257693  0.03098801    -0.78000
C1082       C  0.15194731  0.70219338  0.04705078     0.85500
O1083       O  0.13001396  0.71817579  0.03925620    -0.65100
Ni1084     Ni  0.09875163  0.77255114  0.00495081     1.27400
Ni1085     Ni  0.15264121  0.69292211  0.00626693     1.26100
H1086       H  0.20597844  0.70318681  0.01898957     0.40000
C1087       C  0.40596311  0.92385726  0.09089675     0.87500
C1088       C  0.38260861  0.95028946  0.09965807    -0.52800
C1089       C  0.35950189  0.93012275  0.10732258     0.10400
C1090       C  0.36160213  0.88636733  0.10575264     0.21300
C1091       C  0.42777272  0.89509768  0.09921200    -0.53500
C1092       C  0.40399597  0.87565646  0.10693493     0.10500
C1093       C  0.37478186  0.89882302  0.08486241    -0.53000
C1094       C  0.35207562  0.87944596  0.09269005     0.11100
H1095       H  0.38300502  0.48145371  0.09981804     0.15600
H1096       H  0.34251717  0.87022268  0.11197656     0.01300
H1097       H  0.45854221  0.88990490  0.09875901     0.15900
H1098       H  0.37098871  0.89674178  0.07526392     0.15700
O1099       O  0.44097290  0.02156153  0.04510619    -0.79900
O1100       O  0.48354177  0.00905617  0.99155216    -0.64600
O1101       O  0.43516037  0.00185695  0.02175592    -1.11200
C1102       C  0.02680873  0.89586759  0.02787394     1.07000
O1103       O  0.98939572  0.94758504  0.99177856    -0.77800
O1104       O  0.47825760  0.89074405  0.00717285    -0.65400
Ni1105     Ni  0.43407248  0.54994986  0.03051926     1.34900
C1106       C  0.44313458  0.89902442  0.00790815     0.85700
O1107       O  0.42374775  0.54245287  0.00086684    -0.78400
O1108       O  0.42433051  0.58279824  0.01637914    -0.88600
C1109       C  0.00360096  0.97991894  0.98955743     0.85300
O1110       O  0.48825563  0.56172107  0.02991282    -0.66800
O1111       O  0.04321259  0.90935293  0.01863808    -0.86100
C1112       C  0.50747983  0.56548336  0.02035774     0.86100
C1113       C  0.41794556  0.57554414  0.00532821     1.07700
H1114       H  0.01723503  0.98382593  0.01819383     0.39500
O1115       O  0.49608204  0.97018587  0.01455040    -1.08800
O1116       O  0.43142450  0.92600163  0.01475595    -0.65400
Ni1117     Ni  0.46165028  0.95366616  0.02677099     1.26300
O1118       O  0.49662067  0.54915082  0.01072467    -0.65700
O1119       O  0.49254416  0.90662225  0.03113804    -0.78000
C1120       C  0.46474484  0.99471342  0.04774139     0.85500
O1121       O  0.48666806  0.98016243  0.03971758    -0.65100
Ni1122     Ni  0.01691444  0.92859496  0.00508144     1.27400
Ni1123     Ni  0.46043724  0.00706987  0.00698076     1.26100
H1124       H  0.40867983  0.99531160  0.02018367     0.40000
O1125       O  0.21451625  0.51653433  0.24644746    -0.79900
O1126       O  0.18024539  0.02087948  0.19945912    -0.64600
O1127       O  0.19215516  0.53135349  0.22423751    -1.11200
C1128       C  0.08586760  0.95501853  0.23419824     1.07000
O1129       O  0.13994185  0.97413363  0.19411952    -0.77800
O1130       O  0.09728642  0.52059657  0.20870480    -0.65400
Ni1131     Ni  0.23410467  0.54792045  0.23398442     1.34900
C1132       C  0.09546553  0.54295727  0.21766701     0.85700
O1133       O  0.25370138  0.52687968  0.20776266    -0.78400
O1134       O  0.25346376  0.57652615  0.22095790    -0.88600
C1135       C  0.16523238  0.99934412  0.19142247     0.85300
O1136       O  0.27205900  0.50997447  0.23102008    -0.66800
O1137       O  0.07954320  0.95681887  0.22291318    -0.86100
C1138       C  0.26316167  0.97489735  0.23069111     0.86100
C1139       C  0.26500534  0.56107907  0.21127144     1.07700
H1140       H  0.16583450  0.94365225  0.21983721     0.39500
O1141       O  0.15926056  0.96996284  0.21770122    -1.08800
O1142       O  0.11364169  0.53536569  0.22728303    -0.65400
Ni1143     Ni  0.15423010  0.49869949  0.23201752     1.26300
O1144       O  0.23497646  0.96398312  0.22429359    -0.65700
O1145       O  0.11763030  0.96467146  0.23879638    -0.78000
C1146       C  0.18668989  0.53540740  0.25033249     0.85500
O1147       O  0.15374882  0.52612987  0.24681424    -0.65100
Ni1148     Ni  0.11196214  0.96660522  0.20874126     1.27400
Ni1149     Ni  0.20718643  0.49544806  0.21231333     1.26100
H1150       H  0.18004114  0.55371050  0.22063482     0.40000
C1151       C  0.22915941  0.94444170  0.14751173     0.87500
C1152       C  0.25777578  0.96494392  0.13896016    -0.52800
C1153       C  0.27627832  0.93997186  0.13135066     0.10400
C1154       C  0.26469588  0.89759932  0.13287879     0.21300
C1155       C  0.20195589  0.92116490  0.13906089    -0.53500
C1156       C  0.22107813  0.89672443  0.13149721     0.10500
C1157       C  0.25342178  0.91272808  0.15370440    -0.53000
C1158       C  0.27178278  0.88876020  0.14600259     0.11100
H1159       H  0.26369112  0.49569609  0.13919363     0.15600
H1160       H  0.28007403  0.87746405  0.12675091     0.01300
H1161       H  0.17088453  0.92250508  0.13905987     0.15900
H1162       H  0.25595387  0.90964678  0.16332377     0.15700
O1163       O  0.41065144  0.65562693  0.24616987    -0.79900
O1164       O  0.43807042  0.66451617  0.19808717    -0.64600
O1165       O  0.43084478  0.65362359  0.22306726    -1.11200
C1166       C  0.03628964  0.73052524  0.23214316     1.07000
O1167       O  0.48051344  0.70906696  0.19262082    -0.77800
O1168       O  0.52077849  0.66072065  0.20737071    -0.65400
Ni1169     Ni  0.39062749  0.63092072  0.23256161     1.34900
C1170       C  0.52513327  0.64111968  0.21685376     0.85700
O1171       O  0.36560758  0.66002120  0.20724532    -0.78400
O1172       O  0.37051652  0.60689800  0.21878668    -0.88600
C1173       C  0.45359787  0.68563080  0.19004208     0.85300
O1174       O  0.35304043  0.67075160  0.23151395    -0.66800
O1175       O  0.04271815  0.72465183  0.22101054    -0.86100
C1176       C  0.36098416  0.70626945  0.23112663     0.86100
C1177       C  0.35540538  0.62507010  0.21012726     1.07700
H1178       H  0.45601712  0.74184122  0.21787968     0.39500
O1179       O  0.46199070  0.71510068  0.21611300    -1.08800
O1180       O  0.50955100  0.65199137  0.22657673    -0.65400
Ni1181     Ni  0.46809698  0.68853153  0.23067754     1.26300
O1182       O  0.38698809  0.71899792  0.22410301    -0.65700
O1183       O  0.50375175  0.72465398  0.23680095    -0.78000
C1184       C  0.44361086  0.64182362  0.24740320     0.85500
O1185       O  0.47118926  0.66394306  0.24587871    -0.65100
Ni1186     Ni  0.50926489  0.71552376  0.20704263     1.27400
Ni1187     Ni  0.41325326  0.68965806  0.21141178     1.26100
H1188       H  0.44423429  0.63291146  0.21900528     0.40000
C1189       C  0.38653771  0.74474271  0.14687514     0.87500
C1190       C  0.35742364  0.72368005  0.13863827    -0.52800
C1191       C  0.33804985  0.74820813  0.13109311     0.10400
C1192       C  0.34934863  0.79077232  0.13235987     0.21300
C1193       C  0.41280003  0.76788339  0.13812878    -0.53500
C1194       C  0.39292824  0.79193566  0.13063559     0.10500
C1195       C  0.36253355  0.77638037  0.15314496    -0.53000
C1196       C  0.34316437  0.79986072  0.14552760     0.11100
H1197       H  0.35195126  0.69275930  0.13902363     0.15600
H1198       H  0.33329401  0.81057015  0.12628307     0.01300
H1199       H  0.44386539  0.76672823  0.13787534     0.15900
H1200       H  0.36078579  0.77967655  0.16277138     0.15700
C1201       C  0.40644131  0.67507050  0.89802773     0.87500
C1202       C  0.42747133  0.64551008  0.88985491    -0.52800
C1203       C  0.40332926  0.62634767  0.88222582     0.10400
C1204       C  0.36111481  0.63821699  0.88333865     0.21300
C1205       C  0.38377072  0.70185105  0.88923862    -0.53500
C1206       C  0.36009614  0.68212775  0.88165489     0.10500
C1207       C  0.37458725  0.65107779  0.90418195    -0.53000
C1208       C  0.35143899  0.63184206  0.89644591     0.11100
H1209       H  0.45810806  0.63957412  0.89034544     0.15600
H1210       H  0.34168741  0.62235825  0.87716122     0.01300
H1211       H  0.38467259  0.73317185  0.88912747     0.15900
H1212       H  0.37096681  0.64920710  0.91379181     0.15700
O1213       O  0.98638707  0.69240726  0.99622346    -0.79900
O1214       O  0.48621300  0.72932304  0.94897929    -0.64600
O1215       O  0.49492261  0.71701319  0.97374853    -1.11200
C1216       C  0.41976411  0.82443058  0.98356616     1.07000
O1217       O  0.44205288  0.77206469  0.94338378    -0.77800
O1218       O  0.48846193  0.81170280  0.95887027    -0.65400
Ni1219     Ni  0.01397309  0.67389838  0.98285104     1.34900
C1220       C  0.50858973  0.81364551  0.96829091     0.85700
O1221       O  0.48879856  0.65513039  0.95681502    -0.78400
O1222       O  0.04000994  0.65572378  0.96913587    -0.88600
C1223       C  0.46555408  0.74486018  0.94084004     0.85300
O1224       O  0.47439919  0.63749856  0.98011883    -0.66800
O1225       O  0.42448649  0.83163959  0.97242161    -0.86100
C1226       C  0.43970281  0.64754143  0.98005500     0.86100
C1227       C  0.02317535  0.64381898  0.95976980     1.07700
H1228       H  0.40848875  0.74564120  0.96858068     0.39500
O1229       O  0.43505116  0.75146126  0.96687737    -1.08800
O1230       O  0.49874708  0.79571866  0.97777975    -0.65400
Ni1231     Ni  0.46127229  0.75482685  0.98158393     1.26300
O1232       O  0.42843918  0.67550275  0.97350066    -0.65700
O1233       O  0.42668520  0.79155670  0.98808394    -0.78000
C1234       C  0.00244632  0.72337412  0.99899412     0.85500
O1235       O  0.48513493  0.75430761  0.99691796    -0.65100
Ni1236     Ni  0.43445994  0.79965774  0.95814782     1.27400
Ni1237     Ni  0.45962089  0.70278068  0.96156019     1.26100
H1238       H  0.01660381  0.72998150  0.97016229     0.40000
C1239       C  0.20680387  0.01825604  0.89725698     0.87500
C1240       C  0.18669580  0.54824981  0.88901224    -0.52800
C1241       C  0.21155237  0.56714647  0.88153712     0.10400
C1242       C  0.25354897  0.55475756  0.88293729     0.21300
C1243       C  0.22944461  0.99128338  0.88849639    -0.53500
C1244       C  0.25396640  0.01086264  0.88110302     0.10500
C1245       C  0.23860925  0.54148485  0.90366911    -0.53000
C1246       C  0.26255180  0.56048574  0.89612236     0.11100
H1247       H  0.15605157  0.55432336  0.88923698     0.15600
H1248       H  0.27357599  0.57053626  0.87692213     0.01300
H1249       H  0.22747288  0.96003727  0.88814468     0.15900
H1250       H  0.24166477  0.54294377  0.91330748     0.15700
O1251       O  0.12961637  0.50838282  0.99510902    -0.79900
O1252       O  0.12537481  0.46846091  0.94822567    -0.64600
O1253       O  0.11743711  0.48249063  0.97299902    -1.11200
C1254       C  0.19405806  0.87660812  0.98320879     1.07000
O1255       O  0.17040853  0.92623638  0.94293109    -0.77800
O1256       O  0.12466891  0.88729689  0.95853630    -0.65400
Ni1257     Ni  0.09974465  0.52603080  0.98210769     1.34900
C1258       C  0.10487786  0.88537472  0.96801325     0.85700
O1259       O  0.12136854  0.54327957  0.95573821    -0.78400
O1260       O  0.07170364  0.54310968  0.96870575    -0.88600
C1261       C  0.14616485  0.95252455  0.94020042     0.85300
O1262       O  0.13821347  0.56297038  0.97859641    -0.66800
O1263       O  0.18899584  0.86868190  0.97214096    -0.86100
C1264       C  0.17290359  0.55314474  0.97843193     0.86100
C1265       C  0.08734576  0.55472577  0.95910816     1.07700
H1266       H  0.20410144  0.95479310  0.96771318     0.39500
O1267       O  0.17757402  0.94845983  0.96611345    -1.08800
O1268       O  0.11477820  0.90379667  0.97738838    -0.65400
Ni1269     Ni  0.15160313  0.94552259  0.98089147     1.26300
O1270       O  0.18374814  0.52466691  0.97207311    -0.65700
O1271       O  0.18695007  0.90969252  0.98754076    -0.78000
C1272       C  0.11278805  0.97873586  0.99862744     0.85500
O1273       O  0.12724568  0.94654183  0.99615389    -0.65100
Ni1274     Ni  0.17853875  0.89970128  0.95773740     1.27400
Ni1275     Ni  0.15196009  0.49631807  0.96054549     1.26100
H1276       H  0.09543691  0.96937705  0.96967979     0.40000
O1277       O  0.47963857  0.96680872  0.79516409    -0.79900
O1278       O  0.46272614  0.91926361  0.74201170    -0.64600
O1279       O  0.45943766  0.97200913  0.77168089    -1.11200
C1280       C  0.35348089  0.88277978  0.77861947     1.07000
O1281       O  0.40134490  0.92404204  0.74274341    -0.77800
O1282       O  0.34568922  0.93264712  0.75875867    -0.65400
Ni1283     Ni  0.50714772  0.97303663  0.78047261     1.34900
C1284       C  0.35497664  0.96763298  0.75894636     0.85700
O1285       O  0.49974818  0.97891103  0.75054561    -0.78400
O1286       O  0.03915692  0.98157350  0.76627227    -0.88600
C1287       C  0.43042607  0.90634732  0.73917466     0.85300
O1288       O  0.51936862  0.91848415  0.78020297    -0.66800
O1289       O  0.36503674  0.86641714  0.76908936    -0.86100
C1290       C  0.52231344  0.89794642  0.77085608     0.86100
C1291       C  0.03228529  0.98568601  0.75510764     1.07700
H1292       H  0.43824736  0.88921274  0.76853599     0.39500
O1293       O  0.42568534  0.91143730  0.76499525    -1.08800
O1294       O  0.38346947  0.97861382  0.76521143    -0.65400
Ni1295     Ni  0.41140508  0.94722043  0.77711164     1.26300
O1296       O  0.50431727  0.90711846  0.76130137    -0.65700
O1297       O  0.36474741  0.91710912  0.78184435    -0.78000
C1298       C  0.45352591  0.94260307  0.79785915     0.85500
O1299       O  0.43833504  0.92120900  0.78982699    -0.65100
Ni1300     Ni  0.38299044  0.89398717  0.75567093     1.27400
Ni1301     Ni  0.46327715  0.94458400  0.75715359     1.26100
H1302       H  0.45337992  0.99866256  0.76981030     0.40000
C1303       C  0.38684205  0.99718853  0.84180660     0.87500
C1304       C  0.41321328  0.51925135  0.85077306    -0.52800
C1305       C  0.39343614  0.54294654  0.85840427     0.10400
C1306       C  0.34993440  0.54268903  0.85656305     0.21300
C1307       C  0.35718251  0.97587858  0.84985242    -0.53500
C1308       C  0.33799631  0.00013990  0.85754538     0.10500
C1309       C  0.36332136  0.52988874  0.83573404    -0.53000
C1310       C  0.34415124  0.55311133  0.84346814     0.11100
H1311       H  0.44426747  0.51758134  0.85105960     0.15600
H1312       H  0.33409873  0.56225016  0.86275168     0.01300
H1313       H  0.35132957  0.94506565  0.84926387     0.15900
H1314       H  0.36185355  0.53406579  0.82613400     0.15700
O1315       O  0.13941333  0.73456265  0.79541050    -0.79900
O1316       O  0.15749707  0.78109628  0.74228412    -0.64600
O1317       O  0.15989946  0.72850663  0.77203666    -1.11200
C1318       C  0.26547805  0.81844477  0.77881856     1.07000
O1319       O  0.21867778  0.77417010  0.74327975    -0.77800
O1320       O  0.27398763  0.76728993  0.75956928    -0.65400
Ni1321     Ni  0.11215607  0.72716914  0.78074796     1.34900
C1322       C  0.26462984  0.73235801  0.75965420     0.85700
O1323       O  0.11955776  0.72159630  0.75078603    -0.78400
O1324       O  0.08052632  0.71711112  0.76658492    -0.88600
C1325       C  0.19037933  0.79205508  0.73921991     0.85300
O1326       O  0.09897567  0.78152724  0.78019772    -0.66800
O1327       O  0.25395325  0.83423035  0.76918140    -0.86100
C1328       C  0.09693495  0.80247059  0.77089691     0.86100
C1329       C  0.08744942  0.71323944  0.75542276     1.07700
H1330       H  0.18132690  0.81124625  0.76870623     0.39500
O1331       O  0.19379522  0.78882698  0.76527769    -1.08800
O1332       O  0.23590952  0.72147632  0.76581706    -0.65400
Ni1333     Ni  0.20790384  0.75346708  0.77753131     1.26300
O1334       O  0.11544812  0.79351399  0.76143325    -0.65700
O1335       O  0.25445956  0.78410134  0.78219456    -0.78000
C1336       C  0.16539123  0.75885482  0.79815417     0.85500
O1337       O  0.18098262  0.78000287  0.79012747    -0.65100
Ni1338     Ni  0.23663452  0.80549512  0.75595086     1.27400
Ni1339     Ni  0.15625224  0.75577717  0.75743784     1.26100
H1340       H  0.16606769  0.70186943  0.77020138     0.40000
C1341       C  0.22996059  0.69882470  0.84161087     0.87500
C1342       C  0.20300822  0.67529118  0.85010273    -0.52800
C1343       C  0.22238509  0.65079647  0.85761848     0.10400
C1344       C  0.26594494  0.65198371  0.85619812     0.21300
C1345       C  0.25852658  0.71937004  0.85016708    -0.53500
C1346       C  0.27721755  0.69436938  0.85774384     0.10500
C1347       C  0.25446415  0.66727532  0.83538792    -0.53000
C1348       C  0.27315644  0.64329614  0.84308391     0.11100
H1349       H  0.17193649  0.67667244  0.85020269     0.15600
H1350       H  0.28147361  0.63190574  0.86232414     0.01300
H1351       H  0.26412489  0.75028678  0.84998005     0.15900
H1352       H  0.25692503  0.66438790  0.82576652     0.15700
C1353       C  0.47976902  0.69723357  0.64828956     0.87500
C1354       C  0.50882850  0.71785070  0.63988689    -0.52800
C1355       C  0.52696493  0.69310119  0.63211920     0.10400
C1356       C  0.51463805  0.65090512  0.63332590     0.21300
C1357       C  0.45223719  0.67508127  0.63965342    -0.53500
C1358       C  0.47104352  0.65085577  0.63193843     0.10500
C1359       C  0.50353984  0.66460711  0.65424467    -0.53000
C1360       C  0.52164551  0.64093927  0.64636553     0.11100
H1361       H  0.51529261  0.74855686  0.64035630     0.15600
H1362       H  0.52970756  0.63099971  0.62705249     0.01300
H1363       H  0.42117801  0.67683212  0.63969161     0.15900
H1364       H  0.50616903  0.66090399  0.66383704     0.15700
O1365       O  0.46359171  0.78569123  0.74810493    -0.79900
O1366       O  0.43146450  0.77950949  0.69989310    -0.64600
O1367       O  0.44099951  0.78909850  0.72505523    -1.11200
C1368       C  0.33677170  0.71113321  0.73447338     1.07000
O1369       O  0.38923729  0.73467544  0.69461163    -0.77800
O1370       O  0.35034098  0.78258811  0.70994986    -0.65400
Ni1371     Ni  0.98222256  0.81108108  0.73434756     1.34900
C1372       C  0.34626804  0.80174688  0.71952729     0.85700
O1373       O  0.00428818  0.78356436  0.70852119    -0.78400
O1374       O  0.00124629  0.83579552  0.72049474    -0.88600
C1375       C  0.41589413  0.75825174  0.69189308     0.85300
O1376       O  0.01923658  0.77107898  0.73266224    -0.66800
O1377       O  0.32935852  0.71789233  0.72344195    -0.86100
C1378       C  0.01125114  0.73563934  0.73186609     0.86100
C1379       C  0.01477668  0.81828049  0.71145724     1.07700
H1380       H  0.41554785  0.70126688  0.71954208     0.39500
O1381       O  0.40928501  0.72807897  0.71797422    -1.08800
O1382       O  0.36243217  0.79046239  0.72916406    -0.65400
Ni1383     Ni  0.40450584  0.75357986  0.73276026     1.26300
O1384       O  0.98440437  0.72367993  0.72509846    -0.65700
O1385       O  0.36961579  0.71685267  0.73892370    -0.78000
C1386       C  0.43054902  0.79887230  0.74972558     0.85500
O1387       O  0.40314187  0.77648553  0.74825889    -0.65100
Ni1388     Ni  0.36156242  0.72777165  0.70925400     1.27400
Ni1389     Ni  0.45726068  0.75384963  0.71294632     1.26100
H1390       H  0.42725490  0.81007731  0.72124554     0.40000
O1391       O  0.15675354  0.91183335  0.74707605    -0.79900
O1392       O  0.18960334  0.92038522  0.69926431    -0.64600
O1393       O  0.17978021  0.91062736  0.72413491    -1.11200
C1394       C  0.28227043  0.99027002  0.73393390     1.07000
O1395       O  0.23135220  0.96552208  0.69381796    -0.77800
O1396       O  0.27118716  0.91886652  0.70942136    -0.65400
Ni1397     Ni  0.13915330  0.88679584  0.73319798     1.34900
C1398       C  0.27479291  0.89970371  0.71903732     0.85700
O1399       O  0.11619269  0.91513349  0.70763700    -0.78400
O1400       O  0.12149271  0.86217638  0.71920511    -0.88600
C1401       C  0.20497067  0.94146291  0.69119691     0.85300
O1402       O  0.10106534  0.92601350  0.73160188    -0.66800
O1403       O  0.28994957  0.98413017  0.72288489    -0.86100
C1404       C  0.10833301  0.96170882  0.73107720     0.86100
C1405       C  0.10645674  0.88007844  0.71048955     1.07700
H1406       H  0.20358376  0.99909723  0.71875208     0.39500
O1407       O  0.21033310  0.97240220  0.71719909    -1.08800
O1408       O  0.25793122  0.91079696  0.72854742    -0.65400
Ni1409     Ni  0.21523895  0.94680264  0.73198321     1.26300
O1410       O  0.13478184  0.97479306  0.72432795    -0.65700
O1411       O  0.24936707  0.98404572  0.73829361    -0.78000
C1412       C  0.19027267  0.89973624  0.74857907     0.85500
O1413       O  0.21674204  0.92339845  0.74739933    -0.65100
Ni1414     Ni  0.25841676  0.97342282  0.70858485     1.27400
Ni1415     Ni  0.16281331  0.94567532  0.71212037     1.26100
H1416       H  0.19419615  0.89021423  0.72027342     0.40000
C1417       C  0.13707675  0.99633463  0.64749369     0.87500
C1418       C  0.10723622  0.97520630  0.63945480    -0.52800
C1419       C  0.08796763  0.99966880  0.63181155     0.10400
C1420       C  0.09998239  0.54201237  0.63281970     0.21300
C1421       C  0.16331472  0.51862560  0.63854628    -0.53500
C1422       C  0.14342574  0.54235489  0.63094531     0.10500
C1423       C  0.11353415  0.52887238  0.65363845    -0.53000
C1424       C  0.09419848  0.55208998  0.64591173     0.11100
H1425       H  0.10119662  0.94443510  0.64006087     0.15600
H1426       H  0.08406252  0.56165830  0.62665926     0.01300
H1427       H  0.19436724  0.51708467  0.63823018     0.15900
H1428       H  0.11186287  0.53271872  0.66324503     0.15700
O1429       O  0.18593142  0.76981407  0.54537366    -0.79900
O1430       O  0.22844628  0.75354071  0.49196488    -0.64600
O1431       O  0.17939787  0.74942338  0.52212904    -1.11200
C1432       C  0.26878041  0.64245789  0.52897787     1.07000
O1433       O  0.23008367  0.69166084  0.49275580    -0.77800
O1434       O  0.21999313  0.63597636  0.50869327    -0.65400
Ni1435     Ni  0.17911743  0.79768244  0.53073962     1.34900
C1436       C  0.18502936  0.64480703  0.50928253     0.85700
O1437       O  0.16921538  0.78930703  0.50106899    -0.78400
O1438       O  0.16996514  0.83006504  0.51649473    -0.88600
C1439       C  0.24545749  0.72261993  0.48960313     0.85300
O1440       O  0.23346069  0.80835846  0.53019321    -0.66800
O1441       O  0.28532130  0.65469566  0.51957690    -0.86100
C1442       C  0.25319646  0.81141791  0.52073162     0.86100
C1443       C  0.16374294  0.82257891  0.50545233     1.07700
H1444       H  0.26127569  0.72923718  0.51858312     0.39500
O1445       O  0.23958583  0.71599914  0.51510815    -1.08800
O1446       O  0.17375303  0.67295508  0.51575135    -0.65400
Ni1447     Ni  0.20493344  0.70119663  0.52745090     1.26300
O1448       O  0.24230676  0.79500736  0.51107495    -0.65700
O1449       O  0.23473164  0.65399665  0.53215856    -0.78000
C1450       C  0.21036471  0.74363626  0.54804670     0.85500
O1451       O  0.23139695  0.72824472  0.53997421    -0.65100
Ni1452     Ni  0.25871894  0.67322467  0.50595159     1.27400
Ni1453     Ni  0.20505166  0.75336113  0.50737730     1.26100
H1454       H  0.15281977  0.74328955  0.52055055     0.40000
C1455       C  0.15547593  0.67547594  0.59153939     0.87500
C1456       C  0.13358349  0.70166169  0.60067921    -0.52800
C1457       C  0.10993360  0.68150977  0.60816086     0.10400
C1458       C  0.11041467  0.63781901  0.60610467     0.21300
C1459       C  0.17663741  0.64514382  0.59943176    -0.53500
C1460       C  0.15258971  0.62555071  0.60699983     0.10500
C1461       C  0.12329329  0.65230431  0.58531733    -0.53000
C1462       C  0.10016090  0.63279838  0.59298899     0.11100
H1463       H  0.13558272  0.73285922  0.60128699     0.15600
H1464       H  0.09105168  0.62161413  0.61222373     0.01300
H1465       H  0.20727620  0.63927972  0.59888722     0.15900
H1466       H  0.11932627  0.65136893  0.57570559     0.15700
O1467       O  0.41641132  0.92484484  0.54708230    -0.79900
O1468       O  0.37579847  0.93984023  0.49349337    -0.64600
O1469       O  0.42351134  0.94583613  0.52385226    -1.11200
C1470       C  0.33196141  0.55166886  0.52983404     1.07000
O1471       O  0.36968272  0.50128485  0.49369407    -0.77800
O1472       O  0.38118934  0.55741585  0.50931880    -0.65400
Ni1473     Ni  0.42435264  0.89732245  0.53247393     1.34900
C1474       C  0.41631742  0.54916956  0.51025664     0.85700
O1475       O  0.43517728  0.90580919  0.50284719    -0.78400
O1476       O  0.43514603  0.86523194  0.51833516    -0.88600
C1477       C  0.35554189  0.96886775  0.49151409     0.85300
O1478       O  0.37028725  0.88451843  0.53155421    -0.66800
O1479       O  0.31579002  0.53829969  0.52056799    -0.86100
C1480       C  0.35121082  0.88166190  0.52192111     0.86100
C1481       C  0.44115125  0.87267322  0.50728494     1.07700
H1482       H  0.34180635  0.46433043  0.52007223     0.39500
O1483       O  0.36304238  0.47804062  0.51649711    -1.08800
O1484       O  0.42777215  0.52195392  0.51705540    -0.65400
Ni1485     Ni  0.39713515  0.49406940  0.52887274     1.26300
O1486       O  0.36208744  0.89923441  0.51249410    -0.65700
O1487       O  0.36621698  0.54110739  0.53316815    -0.78000
C1488       C  0.39293548  0.45180198  0.54972761     0.85500
O1489       O  0.37161084  0.46735832  0.54170900    -0.65100
Ni1490     Ni  0.34231457  0.51978334  0.50703831     1.27400
Ni1491     Ni  0.39860048  0.94123277  0.50897761     1.26100
H1492       H  0.45006198  0.95236529  0.52236340     0.40000
C1493       C  0.45584073  0.51909322  0.59236716     0.87500
C1494       C  0.47922840  0.99233977  0.60099298    -0.52800
C1495       C  0.00349291  0.01206659  0.60840090     0.10400
C1496       C  0.00228132  0.55594207  0.60670773     0.21300
C1497       C  0.43537781  0.54835060  0.60076286    -0.53500
C1498       C  0.46006639  0.56750185  0.60821636     0.10500
C1499       C  0.98692908  0.54325226  0.58596569    -0.53000
C1500       C  0.01075267  0.56239534  0.59350090     0.11100
H1501       H  0.97782233  0.96106234  0.60130196     0.15600
H1502       H  0.02217762  0.57185484  0.61272133     0.01300
H1503       H  0.40464088  0.55393075  0.60060174     0.15900
H1504       H  0.98963271  0.54519627  0.57632527     0.15700
C1505       C  0.91192989  0.44368440  0.57105187    -0.12400
C1506       C  0.39603608  0.46750158  0.56210068     0.09800
C1507       C  0.39290242  0.50738357  0.56439917    -0.12400
C1508       C  0.40927040  0.52332890  0.57478285    -0.12400
C1509       C  0.42937178  0.49989020  0.58308294     0.09800
C1510       C  0.92830938  0.45948927  0.58135410    -0.12400
H1511       H  0.91452463  0.41273160  0.56964110     0.13800
H1512       H  0.38105873  0.52666835  0.55770963     0.13800
H1513       H  0.40900811  0.55451340  0.57584830     0.13800
H1514       H  0.94218153  0.43961903  0.58740180     0.13800
C1515       C  0.04146313  0.58724068  0.58972580    -0.12300
C1516       C  0.06853632  0.60875581  0.58949994    -0.13900
C1517       C  0.28830638  0.83552448  0.52092942    -0.12300
C1518       C  0.31672934  0.85668937  0.52144908    -0.13900
C1519       C  0.31079258  0.58329553  0.53538319    -0.12300
C1520       C  0.28916102  0.61118532  0.53502944    -0.13900
C1521       C  0.19257052  0.75177823  0.56941114    -0.12400
C1522       C  0.20896075  0.72839174  0.56048478     0.09800
C1523       C  0.21513237  0.68898315  0.56302712    -0.12400
C1524       C  0.20106325  0.67275084  0.57369610    -0.12400
C1525       C  0.18058289  0.69549660  0.58206769     0.09800
C1526       C  0.17865527  0.73573961  0.58001110    -0.12400
H1527       H  0.18766239  0.78235778  0.56779632     0.13800
H1528       H  0.22758802  0.67005395  0.55636194     0.13800
H1529       H  0.20334706  0.64171176  0.57495143     0.13800
H1530       H  0.16381913  0.75509832  0.58597824     0.13800
C1531       C  0.16335813  0.59434914  0.61501527    -0.12300
C1532       C  0.16029630  0.56868780  0.62232964    -0.13900
C1533       C  0.03043122  0.99446100  0.61677018    -0.12300
C1534       C  0.05636236  0.98986003  0.62389339    -0.13900
C1535       C  0.21292902  0.45592390  0.66942127    -0.12400
C1536       C  0.18942948  0.94280888  0.67879175     0.09800
C1537       C  0.14978008  0.93954710  0.67667790    -0.12400
C1538       C  0.13363021  0.95338001  0.66597838    -0.12400
C1539       C  0.15661488  0.97093350  0.65710647     0.09800
C1540       C  0.19686983  0.46939263  0.65869403    -0.12400
H1541       H  0.24372243  0.45823394  0.67068406     0.13800
H1542       H  0.13079729  0.92968589  0.68369380     0.13800
H1543       H  0.10262714  0.95350534  0.66507619     0.13800
H1544       H  0.21639056  0.48083069  0.65212718     0.13800
C1545       C  0.32135068  0.83656636  0.71955035    -0.12300
C1546       C  0.29982756  0.86498604  0.71933764    -0.13900
C1547       C  0.04611499  0.83860500  0.70556486    -0.12300
C1548       C  0.07398964  0.85995673  0.70517907    -0.13900
C1549       C  0.44977222  0.59807548  0.61649908    -0.12300
C1550       C  0.45316410  0.62392299  0.62372093    -0.13900
C1551       C  0.05796769  0.70271643  0.62398129    -0.12300
C1552       C  0.08356628  0.69859035  0.61674503    -0.13900
C1553       C  0.06890602  0.58291314  0.64942474    -0.12300
C1554       C  0.04667239  0.60959274  0.64961430    -0.13900
C1555       C  0.42173977  0.72646901  0.65975391    -0.12400
C1556       C  0.46176989  0.72339314  0.65797994     0.09800
C1557       C  0.48588052  0.74099783  0.66656020    -0.12400
C1558       C  0.47081037  0.75682294  0.67716381    -0.12400
C1559       C  0.43113185  0.75560707  0.67945350     0.09800
C1560       C  0.40679256  0.74211717  0.67033099    -0.12400
H1561       H  0.40145434  0.71479409  0.65346294     0.13800
H1562       H  0.01680736  0.73963904  0.66549859     0.13800
H1563       H  0.99047732  0.76667103  0.68399516     0.13800
H1564       H  0.37600127  0.74101652  0.67175287     0.13800
C1565       C  0.28464858  0.70800314  0.75119555    -0.12300
C1566       C  0.30629166  0.70261850  0.74285829    -0.13900
C1567       C  0.05662925  0.70434199  0.74727085    -0.12300
C1568       C  0.03322660  0.71038990  0.73949592    -0.13900
C1569       C  0.19527224  0.83203395  0.73912052    -0.12300
C1570       C  0.19713269  0.86287055  0.74376020    -0.13900
C1571       C  0.21944693  0.76069759  0.81322325    -0.12400
C1572       C  0.18009675  0.75697524  0.81066073     0.09800
C1573       C  0.15601811  0.74190527  0.81961148    -0.12400
C1574       C  0.17118856  0.72662499  0.83020415    -0.12400
C1575       C  0.21121819  0.72543879  0.83215161     0.09800
C1576       C  0.23477758  0.74514667  0.82384766    -0.12400
H1577       H  0.23888939  0.77217382  0.80656995     0.13800
H1578       H  0.12542926  0.73909124  0.81801315     0.13800
H1579       H  0.15120479  0.71343190  0.83630129     0.13800
H1580       H  0.26565245  0.74551575  0.82509317     0.13800
C1581       C  0.31988170  0.58486897  0.83992319    -0.12300
C1582       C  0.29826947  0.61212469  0.83966155    -0.13900
C1583       C  0.42709159  0.86638293  0.74014245    -0.12300
C1584       C  0.42517024  0.83614841  0.74513186    -0.13900
C1585       C  0.33454973  0.99235095  0.75065234    -0.12300
C1586       C  0.31264548  0.99837086  0.74240983    -0.13900
C1587       C  0.06334304  0.99265183  0.74686603    -0.12300
C1588       C  0.08627199  0.98595863  0.73900126    -0.13900
C1589       C  0.32302392  0.86193644  0.78470407    -0.12300
C1590       C  0.29578608  0.83983263  0.78478661    -0.13900
C1591       C  0.04848020  0.86410091  0.77091654    -0.12300
C1592       C  0.07124442  0.83668638  0.77092067    -0.13900
C1593       C  0.39842223  0.94184895  0.81240235    -0.12400
C1594       C  0.43806120  0.94451019  0.81025053     0.09800
C1595       C  0.46186971  0.95739381  0.81958740    -0.12400
C1596       C  0.44623382  0.97058004  0.83039492    -0.12400
C1597       C  0.40605100  0.97210018  0.83209401     0.09800
C1598       C  0.38270115  0.95519441  0.82320246    -0.12400
H1599       H  0.37918184  0.93257716  0.80538496     0.13800
H1600       H  0.49262419  0.45961704  0.81825829     0.12200
H1601       H  0.46593552  0.48192920  0.83692744     0.13800
H1602       H  0.35172272  0.95552960  0.82417890     0.13800
C1603       C  0.30685294  0.98972129  0.86557493    -0.12300
C1604       C  0.28092037  0.99340473  0.87273918    -0.13900
C1605       C  0.20510036  0.62345458  0.86587878    -0.12300
C1606       C  0.20163929  0.59774960  0.87317809    -0.13900
C1607       C  0.17859234  0.45897699  0.90830633    -0.12400
C1608       C  0.18021647  0.99943245  0.90657382     0.09800
C1609       C  0.16103341  0.02320892  0.91496672    -0.12400
C1610       C  0.14515579  0.00753939  0.92544709    -0.12400
C1611       C  0.14809883  0.96766903  0.92777646     0.09800
C1612       C  0.16292694  0.44342477  0.91876124    -0.12400
H1613       H  0.19171121  0.43895571  0.90215732     0.13800
H1614       H  0.16128061  0.05440071  0.91390424     0.13800
H1615       H  0.13408397  0.02702652  0.93219133     0.13800
H1616       H  0.16530836  0.41247353  0.92022967     0.13800
C1617       C  0.04299581  0.83838066  0.96835208    -0.12300
C1618       C  0.07080733  0.86019577  0.96827306    -0.13900
C1619       C  0.04378932  0.61310053  0.95354284    -0.12300
C1620       C  0.06597782  0.58563371  0.95323072    -0.13900
C1621       C  0.41050742  0.56930345  0.86696614    -0.12300
C1622       C  0.41387347  0.59510012  0.87420987    -0.13900
C1623       C  0.30755757  0.70407070  0.86609734    -0.12300
C1624       C  0.33310801  0.69972426  0.87334122    -0.13900
C1625       C  0.29370330  0.58487007  0.89981960    -0.12300
C1626       C  0.32053964  0.60671799  0.89989820    -0.13900
C1627       C  0.44968248  0.67127892  0.91637120    -0.12400
C1628       C  0.43234300  0.69444748  0.90745477     0.09800
C1629       C  0.43587823  0.73499745  0.90858124    -0.12400
C1630       C  0.45072960  0.75149732  0.91904318    -0.12400
C1631       C  0.46327918  0.72813330  0.92857907     0.09800
C1632       C  0.46484615  0.68786487  0.92680989    -0.12400
H1633       H  0.44850275  0.63999724  0.91572019     0.13800
H1634       H  0.42520157  0.75455466  0.90184627     0.13800
H1635       H  0.44988805  0.78271566  0.92001338     0.13800
H1636       H  0.47444950  0.66891852  0.93390942     0.13800
C1637       C  0.39855819  0.68458654  0.17540936    -0.12400
C1638       C  0.43810812  0.68794419  0.17766661     0.09800
C1639       C  0.46172955  0.70274181  0.16855947    -0.12400
C1640       C  0.44597269  0.71785647  0.15804367    -0.12400
C1641       C  0.40585348  0.71884155  0.15632020     0.09800
C1642       C  0.38267688  0.69974249  0.16484181    -0.12400
H1643       H  0.37947102  0.67354570  0.18223182     0.13800
H1644       H  0.49243689  0.70536202  0.16995584     0.13800
H1645       H  0.46560533  0.73088859  0.15180440     0.13800
H1646       H  0.35172060  0.69953373  0.16378901     0.13800
C1647       C  0.29642172  0.85752672  0.14949554    -0.12300
C1648       C  0.31822602  0.83058774  0.14924699    -0.13900
C1649       C  0.04972193  0.60628527  0.21680204    -0.12300
C1650       C  0.07091275  0.57775417  0.21707406    -0.13900
C1651       C  0.29520246  0.58302400  0.20524907    -0.12300
C1652       C  0.32263903  0.60508450  0.20484780    -0.13900
C1653       C  0.23457071  0.98856668  0.16564777    -0.12400
C1654       C  0.21076583  0.97072022  0.15704106     0.09800
C1655       C  0.17071990  0.97255488  0.15887554    -0.12400
C1656       C  0.15564228  0.98591153  0.16971038    -0.12400
C1657       C  0.17990045  0.99877650  0.17892043     0.09800
C1658       C  0.21935871  0.00223073  0.17649410    -0.12400
H1659       H  0.26548884  0.98843955  0.16447886     0.13800
H1660       H  0.15069553  0.46109011  0.15247631     0.13800
H1661       H  0.12502752  0.48337111  0.17122395     0.13800
H1662       H  0.23890528  0.01196576  0.18337396     0.13800
C1663       C  0.07299408  0.98084445  0.99733523    -0.12300
C1664       C  0.04213179  0.98315778  0.99288236    -0.13900
C1665       C  0.41818346  0.87794922  0.99995755    -0.12300
C1666       C  0.41181775  0.85540713  0.99190912    -0.13900
C1667       C  0.40974661  0.60643914  0.99695352    -0.12300
C1668       C  0.41543219  0.62810082  0.98860905    -0.13900
C1669       C  0.33225405  0.94681009  0.11572111    -0.12300
C1670       C  0.30662780  0.94993781  0.12300153    -0.13900
C1671       C  0.41464234  0.84490975  0.11512736    -0.12300
C1672       C  0.41025410  0.81908550  0.12232823    -0.13900
C1673       C  0.43130184  0.98432000  0.07965615    -0.12400
C1674       C  0.43093372  0.94379609  0.08127206     0.09800
C1675       C  0.45014516  0.92107776  0.07259540    -0.12400
C1676       C  0.46512587  0.93783344  0.06209294    -0.12400
C1677       C  0.46146114  0.97785983  0.06000917     0.09800
C1678       C  0.44599678  0.00088930  0.06919500    -0.12400
H1679       H  0.41807065  0.50365187  0.08595294     0.13800
H1680       H  0.45094173  0.88984782  0.07352278     0.13800
H1681       H  0.47660305  0.91907758  0.05521726     0.13800
H1682       H  0.44270289  0.53179533  0.06793106     0.13800
C1683       C  0.04208024  0.59006001  0.02028826    -0.12300
C1684       C  0.07069943  0.61085990  0.02014444    -0.13900
C1685       C  0.06927980  0.83597045  0.03356971    -0.12300
C1686       C  0.04773359  0.86405310  0.03354271    -0.13900
C1687       C  0.07158845  0.72235433  0.99138497    -0.12300
C1688       C  0.04139180  0.72404802  0.99622689    -0.13900
C1689       C  0.20302664  0.59378075  0.99534558    -0.12300
C1690       C  0.19738601  0.57258828  0.98690457    -0.13900
C1691       C  0.20252536  0.84607118  0.99167496    -0.12300
C1692       C  0.19677397  0.82328368  0.99972230    -0.13900
C1693       C  0.19970074  0.84409218  0.11594235    -0.12300
C1694       C  0.20338974  0.86965262  0.12325965    -0.13900
C1695       C  0.30711963  0.73768667  0.12304680    -0.12300
C1696       C  0.28109404  0.74111803  0.11592816    -0.13900
C1697       C  0.29345244  0.83366643  0.08963494    -0.12300
C1698       C  0.32082128  0.85473231  0.08940386    -0.13900
C1699       C  0.18331742  0.70724879  0.07934101    -0.12400
C1700       C  0.18231818  0.74738128  0.08164592     0.09800
C1701       C  0.16341573  0.77127798  0.07320216    -0.12400
C1702       C  0.15022258  0.75629926  0.06226176    -0.12400
C1703       C  0.15497815  0.71684814  0.05955469     0.09800
C1704       C  0.17021882  0.69240228  0.06845233    -0.12400
H1705       H  0.19655042  0.68703953  0.08542120     0.13800
H1706       H  0.16191273  0.80227711  0.07463051     0.13800
H1707       H  0.13911167  0.77608923  0.05559048     0.13800
H1708       H  0.17421266  0.66178288  0.06670420     0.13800
C1709       C  0.44870773  0.59339694  0.49469232    -0.12300
C1710       C  0.44178612  0.57065623  0.50262038    -0.13900
C1711       C  0.44272793  0.81985533  0.49067869    -0.12300
C1712       C  0.44890217  0.84177670  0.49890701    -0.13900
C1713       C  0.31525563  0.72186145  0.49635050    -0.12300
C1714       C  0.28497178  0.72342089  0.49151181    -0.13900
C1715       C  0.41905188  0.69149077  0.42123910    -0.12400
C1716       C  0.40361813  0.71596352  0.43010700     0.09800
C1717       C  0.40036907  0.75564381  0.42749705    -0.12400
C1718       C  0.41565772  0.77080411  0.41684408    -0.12400
C1719       C  0.43516863  0.74690955  0.40855747     0.09800
C1720       C  0.43446282  0.70659764  0.41062678    -0.12400
H1721       H  0.92167236  0.66065317  0.42287931     0.13800
H1722       H  0.38899437  0.77545834  0.43410344     0.13800
H1723       H  0.41513751  0.80189828  0.41554387     0.13800
H1724       H  0.94790588  0.68645052  0.40457049     0.13800
C1725       C  0.07232052  0.85735235  0.40104255    -0.12300
C1726       C  0.04588161  0.83511645  0.40110866    -0.13900
C1727       C  0.28593389  0.96680464  0.49920899    -0.12300
C1728       C  0.31694748  0.96527051  0.49481546    -0.13900
C1729       C  0.16245573  0.87499643  0.48868996    -0.12300
C1730       C  0.15624528  0.85340888  0.49700951    -0.13900
C1731       C  0.15480517  0.60068696  0.49333356    -0.12300
C1732       C  0.16016066  0.62336669  0.50141444    -0.13900
C1733       C  0.29013386  0.58597427  0.47013846    -0.12300
C1734       C  0.31861789  0.60713692  0.47009432    -0.13900
C1735       C  0.31735518  0.83513594  0.45504672    -0.12300
C1736       C  0.29487549  0.86251380  0.45502286    -0.13900
C1737       C  0.21571670  0.93940305  0.42743259    -0.12400
C1738       C  0.21244128  0.97937153  0.42955322     0.09800
C1739       C  0.19873498  0.00303600  0.42023632    -0.12400
C1740       C  0.18447700  0.98687914  0.40964876    -0.12400
C1741       C  0.18278726  0.94632406  0.40814074     0.09800
C1742       C  0.20119726  0.92313354  0.41685269    -0.12400
H1743       H  0.22611397  0.92026244  0.43437795     0.13800
H1744       H  0.19640498  0.03408023  0.42148973     0.13800
H1745       H  0.17263786  0.00660309  0.40315399     0.13800
H1746       H  0.20121355  0.89189285  0.41595875     0.13800
C1747       C  0.28375918  0.95015232  0.23896485    -0.12300
C1748       C  0.30629166  0.94466728  0.24709214    -0.13900
C1749       C  0.03355793  0.95230393  0.25100160    -0.12300
C1750       C  0.05510204  0.94677259  0.24260090    -0.13900
C1751       C  0.44386498  0.57331925  0.23839433    -0.12300
C1752       C  0.44790562  0.60444079  0.24270285    -0.13900
C1753       C  0.05735410  0.95460268  0.36689623    -0.12300
C1754       C  0.08260588  0.95106849  0.37427093    -0.13900
C1755       C  0.45641917  0.87218106  0.36786537    -0.12300
C1756       C  0.45367806  0.84583130  0.37500374    -0.13900
C1757       C  0.48303111  0.98959756  0.32444834    -0.12400
C1758       C  0.45973253  0.97055845  0.33297363     0.09800
C1759       C  0.41983026  0.96981355  0.33081739    -0.12400
C1760       C  0.40459108  0.98332858  0.31999133    -0.12400
C1761       C  0.42843752  0.99857197  0.31098882     0.09800
C1762       C  0.46765002  0.00331398  0.31359524    -0.12400
H1763       H  0.01385445  0.99091352  0.32575601     0.13800
H1764       H  0.40015875  0.95637426  0.33696819     0.13800
H1765       H  0.37417421  0.97935829  0.31833157     0.13800
H1766       H  0.98700051  0.01451407  0.30687094     0.13800
C1767       C  0.29950887  0.60728962  0.27165509    -0.12300
C1768       C  0.32059965  0.57855371  0.27142431    -0.13900
C1769       C  0.04443485  0.58514744  0.28403179    -0.12300
C1770       C  0.07213605  0.60684977  0.28360297    -0.13900
C1771       C  0.19388804  0.57501478  0.25081164    -0.12300
C1772       C  0.19933475  0.60544340  0.24616010    -0.13900
C1773       C  0.31800497  0.73711743  0.24767763    -0.12300
C1774       C  0.34021599  0.73042937  0.23954009    -0.13900
C1775       C  0.09007655  0.73195239  0.24841608    -0.12300
C1776       C  0.06757820  0.73812611  0.24033984    -0.13900
C1777       C  0.03572256  0.74186740  0.37451324    -0.12300
C1778       C  0.06105456  0.73801626  0.36712981    -0.13900
C1779       C  0.16088219  0.82148018  0.36718885    -0.12300
C1780       C  0.16354527  0.84754017  0.37443794    -0.13900
C1781       C  0.06867526  0.83222937  0.34097265    -0.12300
C1782       C  0.04710118  0.85939408  0.34111344    -0.13900
C1783       C  0.13376263  0.70142713  0.32428592    -0.12400
C1784       C  0.15711580  0.72160963  0.33255394     0.09800
C1785       C  0.19696498  0.72223532  0.33027464    -0.12400
C1786       C  0.21207492  0.70716292  0.31962855    -0.12400
C1787       C  0.18813165  0.69093849  0.31081453     0.09800
C1788       C  0.14900064  0.68630969  0.31356950    -0.12400
H1789       H  0.10300130  0.69999322  0.32569739     0.13800
H1790       H  0.21673562  0.73648823  0.33620910     0.13800
H1791       H  0.24249676  0.71085739  0.31790834     0.13800
H1792       H  0.12959131  0.67410457  0.30703247     0.13800
C1793       C  0.63795956  0.24683458  0.34235306     0.87500
C1794       C  0.66440537  0.27051512  0.35100385    -0.52800
C1795       C  0.64442526  0.29385513  0.35875826     0.10400
C1796       C  0.60094494  0.29158728  0.35731546     0.21300
C1797       C  0.60999182  0.22490387  0.35084345    -0.53500
C1798       C  0.59075719  0.24885976  0.35863301     0.10500
C1799       C  0.61267231  0.27814760  0.33639395    -0.53000
C1800       C  0.59356911  0.30101644  0.34425137     0.11100
H1801       H  0.69551041  0.27002055  0.35100233     0.15600
H1802       H  0.58492491  0.31086625  0.36354902     0.01300
H1803       H  0.60527828  0.19385642  0.35048253     0.15900
H1804       H  0.61020710  0.28192210  0.32679737     0.15700
O1805       O  0.72975868  0.21131854  0.29550112    -0.79900
O1806       O  0.72202483  0.16484400  0.24237135    -0.64600
O1807       O  0.71157462  0.21630571  0.27199167    -1.11200
C1808       C  0.60433653  0.12663325  0.27787484     1.07000
O1809       O  0.66181600  0.15529133  0.24174195    -0.77800
O1810       O  0.60341839  0.17172430  0.25591442    -0.65400
Ni1811     Ni  0.75885795  0.21707254  0.28109687     1.34900
C1812       C  0.61109591  0.20725015  0.25662067     0.85700
O1813       O  0.75387923  0.22570246  0.25139959    -0.78400
O1814       O  0.79279323  0.22547241  0.26716265    -0.88600
C1815       C  0.69508148  0.14195371  0.24093958     0.85300
O1816       O  0.77066004  0.16221689  0.28100087    -0.66800
O1817       O  0.61870257  0.10840569  0.26909471    -0.86100
C1818       C  0.77500721  0.14230301  0.27157298     0.86100
C1819       C  0.78659663  0.23091677  0.25599348     1.07700
H1820       H  0.69369840  0.13407989  0.26928656     0.39500
O1821       O  0.68048099  0.15465560  0.26509242    -1.08800
O1822       O  0.63671122  0.21981092  0.26380337    -0.65400
Ni1823     Ni  0.66268179  0.19094073  0.27665003     1.26300
O1824       O  0.75936856  0.15297227  0.26182678    -0.65700
O1825       O  0.61505110  0.16137567  0.28076109    -0.78000
C1826       C  0.70278691  0.18812496  0.29826896     0.85500
O1827       O  0.68698874  0.16664394  0.29033134    -0.65100
Ni1828     Ni  0.64060114  0.13158829  0.25539291     1.27400
Ni1829     Ni  0.71811577  0.18955065  0.25751428     1.26100
H1830       H  0.70556904  0.24299290  0.27014678     0.40000
C1831       C  0.97885815  0.44560981  0.34275585     0.87500
C1832       C  0.95265041  0.42285942  0.35169029    -0.52800
C1833       C  0.97276732  0.39939988  0.35936786     0.10400
C1834       C  0.01621180  0.40082493  0.35762025     0.21300
C1835       C  0.00773345  0.46743852  0.35090527    -0.53500
C1836       C  0.02709971  0.44350368  0.35864655     0.10500
C1837       C  0.00314641  0.41366158  0.33675013    -0.53000
C1838       C  0.02247589  0.39077918  0.34454301     0.11100
H1839       H  0.92156994  0.42397552  0.35192356     0.15600
H1840       H  0.03237799  0.38154379  0.36382760     0.01300
H1841       H  0.01305695  0.99842097  0.35037157     0.15900
H1842       H  0.00492963  0.40958508  0.32715270     0.15700
O1843       O  0.88788241  0.47601342  0.29564594    -0.79900
O1844       O  0.90545693  0.02342755  0.24255947    -0.64600
O1845       O  0.90915177  0.47035638  0.27227741    -1.11200
C1846       C  0.51327803  0.06309630  0.27863407     1.07000
O1847       O  0.96646504  0.01598496  0.24349061    -0.77800
O1848       O  0.52219628  0.01139184  0.25957817    -0.65400
Ni1849     Ni  0.86114471  0.46778795  0.28088414     1.34900
C1850       C  0.51351749  0.47636172  0.25967993     0.85700
O1851       O  0.86891221  0.46286310  0.25089132    -0.78400
O1852       O  0.82993075  0.45679185  0.26662241    -0.88600
C1853       C  0.93834032  0.03345198  0.23920191     0.85300
O1854       O  0.84665627  0.02183203  0.28032710    -0.66800
O1855       O  0.50058417  0.07827035  0.26905194    -0.86100
C1856       C  0.84519690  0.04345369  0.27116277     0.86100
C1857       C  0.83690216  0.45366157  0.25542653     1.07700
H1858       H  0.92893009  0.05352739  0.26891680     0.39500
O1859       O  0.94172390  0.03129082  0.26549428    -1.08800
O1860       O  0.48544721  0.46492731  0.26605481    -0.65400
Ni1861     Ni  0.95680058  0.99644478  0.27777266     1.26300
O1862       O  0.86378362  0.03486912  0.26168980    -0.65700
O1863       O  0.50280807  0.02873723  0.28228237    -0.78000
C1864       C  0.91364343  0.50051833  0.29845073     0.85500
O1865       O  0.92903888  0.52211185  0.29046830    -0.65100
Ni1866     Ni  0.48378235  0.04849209  0.25597839     1.27400
Ni1867     Ni  0.90489852  0.99765674  0.25765251     1.26100
H1868       H  0.91597221  0.44388752  0.27043358     0.40000
O1869       O  0.72955676  0.43853595  0.49691723    -0.79900
O1870       O  0.73461966  0.47927875  0.45006018    -0.64600
O1871       O  0.74214762  0.46513145  0.47489348    -1.11200
C1872       C  0.66440860  0.07047352  0.48491941     1.07000
O1873       O  0.68960610  0.52135154  0.44459183    -0.77800
O1874       O  0.73524656  0.06019807  0.46051693    -0.65400
Ni1875     Ni  0.75987412  0.42139720  0.48396621     1.34900
C1876       C  0.75516433  0.06178280  0.46999876     0.85700
O1877       O  0.73893778  0.40438631  0.45760147    -0.78400
O1878       O  0.78843998  0.40471916  0.47061485    -0.88600
C1879       C  0.71387981  0.49498254  0.44194727     0.85300
O1880       O  0.72154216  0.38455102  0.48025368    -0.66800
O1881       O  0.66992969  0.07858337  0.47387355    -0.86100
C1882       C  0.68687977  0.39446166  0.48018726     0.86100
C1883       C  0.77306523  0.39310557  0.46098121     1.07700
H1884       H  0.65553121  0.49267643  0.46938016     0.39500
O1885       O  0.68207873  0.49908360  0.46786023    -1.08800
O1886       O  0.74476066  0.04368061  0.47941118    -0.65400
Ni1887     Ni  0.70757301  0.50186338  0.48273537     1.26300
O1888       O  0.67602307  0.42302977  0.47386448    -0.65700
O1889       O  0.67194393  0.03752735  0.48930491    -0.78000
C1890       C  0.74608478  0.46829631  0.50051019     0.85500
O1891       O  0.73114549  0.50036679  0.49813027    -0.65100
Ni1892     Ni  0.68122405  0.04785278  0.45947195     1.27400
Ni1893     Ni  0.70796496  0.45130258  0.46235465     1.26100
H1894       H  0.76415953  0.47842057  0.47162373     0.40000
C1895       C  0.65682008  0.42673623  0.39871492     0.87500
C1896       C  0.67764213  0.39778600  0.39022960    -0.52800
C1897       C  0.65315137  0.37845850  0.38269557     0.10400
C1898       C  0.61091196  0.38972410  0.38422817     0.21300
C1899       C  0.63308508  0.45348616  0.39018685    -0.53500
C1900       C  0.60924570  0.43366379  0.38268520     0.10500
C1901       C  0.62594376  0.40199535  0.40500923    -0.53000
C1902       C  0.60247179  0.38279833  0.39739472     0.11100
H1903       H  0.70839621  0.39237545  0.39044692     0.15600
H1904       H  0.59116282  0.37381366  0.37816465     0.01300
H1905       H  0.63394009  0.98484811  0.39005649     0.15900
H1906       H  0.62314179  0.39963736  0.41463843     0.15700
O1907       O  0.86995451  0.25455410  0.49780489    -0.79900
O1908       O  0.87765604  0.21758893  0.45030224    -0.64600
O1909       O  0.86479621  0.22965704  0.47522098    -1.11200
C1910       C  0.94081868  0.12394645  0.48626858     1.07000
O1911       O  0.92278395  0.17437199  0.44579557    -0.77800
O1912       O  0.87415257  0.13447757  0.46090954    -0.65400
Ni1913     Ni  0.84434629  0.27288251  0.48409693     1.34900
C1914       C  0.85317758  0.13220631  0.47017931     0.85700
O1915       O  0.87222183  0.29202918  0.45835745    -0.78400
O1916       O  0.81982359  0.29097895  0.47017161    -0.88600
C1917       C  0.89973478  0.20124769  0.44264001     0.85300
O1918       O  0.88415339  0.30963445  0.48194183    -0.66800
O1919       O  0.93704486  0.11619181  0.47514951    -0.86100
C1920       C  0.91893938  0.29984006  0.48213593     0.86100
C1921       C  0.83760584  0.30353008  0.46108460     1.07700
H1922       H  0.95225710  0.20214462  0.47119022     0.39500
O1923       O  0.92599045  0.19596080  0.46918995    -1.08800
O1924       O  0.86196868  0.15056556  0.47966895    -0.65400
Ni1925     Ni  0.89811281  0.19250796  0.48360217     1.26300
O1926       O  0.93083542  0.27176735  0.47577418    -0.65700
O1927       O  0.93280402  0.15679518  0.49061077    -0.78000
C1928       C  0.85365542  0.22332710  0.50012536     0.85500
O1929       O  0.87219208  0.19282786  0.49861489    -0.65100
Ni1930     Ni  0.92830280  0.14744868  0.46071436     1.27400
Ni1931     Ni  0.90153917  0.24436465  0.46344628     1.26100
H1932       H  0.84378170  0.21630757  0.47139373     0.40000
C1933       C  0.96100572  0.26589901  0.39902340     0.87500
C1934       C  0.93994666  0.29477977  0.39057343    -0.52800
C1935       C  0.96419965  0.31427296  0.38302493     0.10400
C1936       C  0.00652813  0.30304312  0.38442667     0.21300
C1937       C  0.98464564  0.23916971  0.39044820    -0.53500
C1938       C  0.00843132  0.25907891  0.38288331     0.10500
C1939       C  0.99197847  0.29065897  0.40523933    -0.53000
C1940       C  0.51529446  0.30986054  0.39756766     0.11100
H1941       H  0.90920447  0.30024928  0.39088751     0.15600
H1942       H  0.52606401  0.31911150  0.37832648     0.01300
H1943       H  0.98381513  0.20783670  0.39037620     0.15900
H1944       H  0.99501738  0.29291445  0.41486260     0.15700
C1945       C  0.70719684  0.26620094  0.09140193     0.87500
C1946       C  0.73010304  0.23907049  0.10005863    -0.52800
C1947       C  0.75379949  0.25859080  0.10769115     0.10400
C1948       C  0.75248643  0.30250583  0.10621979     0.21300
C1949       C  0.68598080  0.29500102  0.09981786    -0.53500
C1950       C  0.71018458  0.31385731  0.10753446     0.10500
C1951       C  0.73864499  0.29078046  0.08535983    -0.53000
C1952       C  0.76187573  0.30952069  0.09312758     0.11100
H1953       H  0.72892772  0.20776590  0.10018093     0.15600
H1954       H  0.77199824  0.31814977  0.11242133     0.01300
H1955       H  0.65524935  0.30051922  0.09947845     0.15900
H1956       H  0.74229024  0.29297982  0.07575399     0.15700
O1957       O  0.67522926  0.17528922  0.04410777    -0.79900
O1958       O  0.62789902  0.19229017  0.99109942    -0.64600
O1959       O  0.67955218  0.19692853  0.02083006    -1.11200
C1960       C  0.58955274  0.30393715  0.02786047     1.07000
O1961       O  0.62645515  0.25408013  0.99165675    -0.77800
O1962       O  0.63719965  0.31025649  0.00732460    -0.65400
Ni1963     Ni  0.68099234  0.14809465  0.02932705     1.34900
C1964       C  0.67224691  0.30166699  0.00774526     0.85700
O1965       O  0.68780527  0.15719140  0.99962373    -0.78400
O1966       O  0.68953264  0.11612123  0.01497056    -0.88600
C1967       C  0.61059695  0.22306454  0.98886765     0.85300
O1968       O  0.62674605  0.13645804  0.02917645    -0.66800
O1969       O  0.57265818  0.29106880  0.01862768    -0.86100
C1970       C  0.60592865  0.13448853  0.01990215     0.86100
C1971       C  0.69464766  0.12404278  0.00390371     1.07700
H1972       H  0.59731475  0.21698363  0.01794599     0.39500
O1973       O  0.61864994  0.23017976  0.01424387    -1.08800
O1974       O  0.68405638  0.27366112  0.01420942    -0.65400
Ni1975     Ni  0.65422775  0.24534821  0.02627982     1.26300
O1976       O  0.61573551  0.15164267  0.01028025    -0.65700
O1977       O  0.62382431  0.29253844  0.03101541    -0.78000
C1978       C  0.65187623  0.20212170  0.04706190     0.85500
O1979       O  0.62994420  0.21811402  0.03926943    -0.65100
Ni1980     Ni  0.59866294  0.27254311  0.00497935     1.27400
Ni1981     Ni  0.65262443  0.19294159  0.00628208     1.26100
H1982       H  0.70593781  0.20320275  0.01901328     0.40000
C1983       C  0.90598751  0.42372381  0.09088666     0.87500
C1984       C  0.88267483  0.45013838  0.09966416    -0.52800
C1985       C  0.85957436  0.42996363  0.10732722     0.10400
C1986       C  0.86164135  0.38621325  0.10574286     0.21300
C1987       C  0.92780233  0.39492153  0.09918800    -0.53500
C1988       C  0.90403089  0.37546632  0.10691048     0.10500
C1989       C  0.87477837  0.39872399  0.08485273    -0.53000
C1990       C  0.85207572  0.37933965  0.09268071     0.11100
H1991       H  0.88290659  0.98160675  0.09979499     0.15600
H1992       H  0.84256150  0.37006250  0.11196675     0.01300
H1993       H  0.95856667  0.38970716  0.09872474     0.15900
H1994       H  0.87096459  0.39667192  0.07525448     0.15700
O1995       O  0.94100551  0.52156475  0.04510222    -0.79900
O1996       O  0.98349346  0.50901862  0.99154275    -0.64600
O1997       O  0.93515397  0.50186787  0.02175249    -1.11200
C1998       C  0.52670431  0.39580003  0.02786725     1.07000
O1999       O  0.48928603  0.44753884  0.99177109    -0.77800
O2000       O  0.97813568  0.39070560  0.00716688    -0.65400
Ni2001     Ni  0.93405279  0.04994112  0.03052135     1.34900
C2002       C  0.94302076  0.39901207  0.00790444     0.85700
O2003       O  0.92374588  0.04244224  0.00086785    -0.78400
O2004       O  0.92431597  0.08278793  0.01637992    -0.88600
C2005       C  0.50350863  0.47985719  0.98953895     0.85300
O2006       O  0.98823868  0.06171672  0.02991901    -0.66800
O2007       O  0.54310768  0.40924568  0.01862488    -0.86100
C2008       C  0.00746284  0.06548860  0.02036403     0.86100
C2009       C  0.91793082  0.07553289  0.00532903     1.07700
H2010       H  0.51721312  0.48376236  0.01818116     0.39500
O2011       O  0.99604204  0.47014129  0.01454083    -1.08800
O2012       O  0.93133904  0.42600877  0.01475067    -0.65400
Ni2013     Ni  0.96160222  0.45365372  0.02676430     1.26300
O2014       O  0.99660016  0.04917558  0.01072973    -0.65700
O2015       O  0.99245244  0.40658818  0.03113226    -0.78000
C2016       C  0.96475001  0.49468761  0.04773412     0.85500
O2017       O  0.98665733  0.48012742  0.03970800    -0.65100
Ni2018     Ni  0.51681597  0.42852415  0.00507009     1.27400
Ni2019     Ni  0.96042087  0.50706008  0.00697614     1.26100
H2020       H  0.90866802  0.49534200  0.02018138     0.40000
O2021       O  0.71458453  0.01638368  0.24642089    -0.79900
O2022       O  0.68024786  0.52087816  0.19946017    -0.64600
O2023       O  0.69218790  0.03128298  0.22422627    -1.11200
C2024       C  0.58583779  0.45512321  0.23421395     1.07000
O2025       O  0.63994491  0.47411931  0.19413213    -0.77800
O2026       O  0.59727749  0.02051689  0.20870536    -0.65400
Ni2027     Ni  0.73415313  0.04782203  0.23396783     1.34900
C2028       C  0.59548898  0.04288235  0.21766597     0.85700
O2029       O  0.75371896  0.02684399  0.20774655    -0.78400
O2030       O  0.75347949  0.07647458  0.22094701    -0.88600
C2031       C  0.66525030  0.49930789  0.19142847     0.85300
O2032       O  0.77211078  0.00989703  0.23097988    -0.66800
O2033       O  0.57950865  0.45694538  0.22292934    -0.86100
C2034       C  0.76311891  0.47497106  0.23071815     0.86100
C2035       C  0.76502391  0.06104077  0.21125906     1.07700
H2036       H  0.66580959  0.44371204  0.21985612     0.39500
O2037       O  0.65924052  0.47002127  0.21771708    -1.08800
O2038       O  0.61368385  0.03529985  0.22727885    -0.65400
Ni2039     Ni  0.65426525  0.99862423  0.23200555     1.26300
O2040       O  0.73494632  0.46405902  0.22431563    -0.65700
O2041       O  0.61761136  0.46474134  0.23881009    -0.78000
C2042       C  0.68678626  0.03526064  0.25032340     0.85500
O2043       O  0.65382547  0.02604103  0.24680520    -0.65100
Ni2044     Ni  0.61194430  0.46666868  0.20875558     1.27400
Ni2045     Ni  0.70720414  0.99540023  0.21229733     1.26100
H2046       H  0.68007402  0.05364878  0.22062868     0.40000
C2047       C  0.72923572  0.44433529  0.14752008     0.87500
C2048       C  0.75788224  0.46482643  0.13897475    -0.52800
C2049       C  0.77637048  0.43984961  0.13136265     0.10400
C2050       C  0.76474637  0.39748726  0.13288181     0.21300
C2051       C  0.70202462  0.42109775  0.13906197    -0.53500
C2052       C  0.72112924  0.39665659  0.13149588     0.10500
C2053       C  0.75347301  0.41259318  0.15371003    -0.53000
C2054       C  0.77182111  0.38862284  0.14600429     0.11100
H2055       H  0.76355532  0.99581991  0.13917314     0.15600
H2056       H  0.78011123  0.37734985  0.12675129     0.01300
H2057       H  0.67095546  0.42247235  0.13905372     0.15900
H2058       H  0.75600964  0.40950586  0.16332908     0.15700
O2059       O  0.91081130  0.15547237  0.24618566    -0.79900
O2060       O  0.93805782  0.16446574  0.19808998    -0.64600
O2061       O  0.93090315  0.15354193  0.22307049    -1.11200
C2062       C  0.53637824  0.23040880  0.23213050     1.07000
O2063       O  0.98051651  0.20899503  0.19261709    -0.77800
O2064       O  0.02081468  0.16062560  0.20735251    -0.65400
Ni2065     Ni  0.89071450  0.13082933  0.23257747     1.34900
C2066       C  0.02518136  0.14103114  0.21683588     0.85700
O2067       O  0.86562961  0.15998391  0.20726746    -0.78400
O2068       O  0.87052067  0.10685261  0.21880691    -0.88600
C2069       C  0.95357320  0.18558330  0.19004339     0.85300
O2070       O  0.85315558  0.17069256  0.23155531    -0.66800
O2071       O  0.54279645  0.22452583  0.22099740    -0.86100
C2072       C  0.86109955  0.20621033  0.23116116     0.86100
C2073       C  0.85542182  0.12503379  0.21014707     1.07700
H2074       H  0.95609044  0.24176081  0.21788267     0.39500
O2075       O  0.96204870  0.21501900  0.21611315    -1.08800
O2076       O  0.00961483  0.15190437  0.22655989    -0.65400
Ni2077     Ni  0.96818095  0.18843887  0.23067315     1.26300
O2078       O  0.88707372  0.21893623  0.22412604    -0.65700
O2079       O  0.00384179  0.22455649  0.23679007    -0.78000
C2080       C  0.94378502  0.14168041  0.24739331     0.85500
O2081       O  0.97133502  0.16383182  0.24586959    -0.65100
Ni2082     Ni  0.00930816  0.21542828  0.20703345     1.27400
Ni2083     Ni  0.91329091  0.18959884  0.21142443     1.26100
H2084       H  0.94427627  0.13283475  0.21900094     0.40000
C2085       C  0.88651156  0.24455536  0.14684867     0.87500
C2086       C  0.85735248  0.22350258  0.13862406    -0.52800
C2087       C  0.83799193  0.24803684  0.13107660     0.10400
C2088       C  0.84934259  0.29059036  0.13232970     0.21300
C2089       C  0.91278056  0.26763806  0.13808873    -0.53500
C2090       C  0.89291944  0.29169576  0.13059368     0.10500
C2091       C  0.86256078  0.27623793  0.15311435    -0.53000
C2092       C  0.84319963  0.29971824  0.14549685     0.11100
H2093       H  0.85184079  0.19259026  0.13901963     0.15600
H2094       H  0.83329417  0.31039149  0.12625236     0.01300
H2095       H  0.94384418  0.26644493  0.13782897     0.15900
H2096       H  0.86083454  0.27956008  0.16274031     0.15700
C2097       C  0.90649699  0.17500622  0.89802424     0.87500
C2098       C  0.92753610  0.14545036  0.88985199    -0.52800
C2099       C  0.90340535  0.12630225  0.88221578     0.10400
C2100       C  0.86119095  0.13818135  0.88332174     0.21300
C2101       C  0.88384563  0.20180364  0.88923561    -0.53500
C2102       C  0.86017812  0.18209664  0.88164550     0.10500
C2103       C  0.87462309  0.15101111  0.90416908    -0.53000
C2104       C  0.85148911  0.13178569  0.89642598     0.11100
H2105       H  0.95816825  0.13949726  0.89035087     0.15600
H2106       H  0.84177235  0.12233468  0.87713875     0.01300
H2107       H  0.88473709  0.23312554  0.88913504     0.15900
H2108       H  0.87098247  0.14912685  0.91377790     0.15700
O2109       O  0.48629652  0.19232143  0.99622508    -0.79900
O2110       O  0.98620089  0.22929266  0.94898814    -0.64600
O2111       O  0.99486614  0.21697363  0.97375557    -1.11200
C2112       C  0.91970487  0.32440523  0.98356735     1.07000
O2113       O  0.94207549  0.27205030  0.94338163    -0.77800
O2114       O  0.98845345  0.31167526  0.95888243    -0.65400
Ni2115     Ni  0.51389487  0.17383836  0.98285175     1.34900
C2116       C  0.00856264  0.31361839  0.96830664     0.85700
O2117       O  0.98871291  0.15510103  0.95681700    -0.78400
O2118       O  0.53993271  0.15568760  0.96913356    -0.88600
C2119       C  0.96556381  0.24482690  0.94084384     0.85300
O2120       O  0.97430989  0.13746328  0.98010565    -0.66800
O2121       O  0.92444797  0.33161659  0.97242306    -0.86100
C2122       C  0.93961966  0.14752574  0.98004984     0.86100
C2123       C  0.52308616  0.14378175  0.95976958     1.07700
H2124       H  0.90845095  0.24564189  0.96857731     0.39500
O2125       O  0.93501837  0.25145097  0.96687817    -1.08800
O2126       O  0.99870741  0.29568424  0.97779365    -0.65400
Ni2127     Ni  0.96121905  0.25479056  0.98158950     1.26300
O2128       O  0.92836126  0.17549860  0.97349917    -0.65700
O2129       O  0.92663245  0.29153283  0.98808708    -0.78000
C2130       C  0.50234872  0.22327829  0.99901024     0.85500
O2131       O  0.98506159  0.25422599  0.99692791    -0.65100
Ni2132     Ni  0.93445329  0.29964257  0.95814782     1.27400
Ni2133     Ni  0.95956857  0.20276397  0.96156233     1.26100
H2134       H  0.51655505  0.22994064  0.97017384     0.40000
C2135       C  0.70681704  0.51825600  0.89727097     0.87500
C2136       C  0.68670618  0.04825885  0.88899699    -0.52800
C2137       C  0.71157363  0.06711135  0.88151546     0.10400
C2138       C  0.75355950  0.05467778  0.88291161     0.21300
C2139       C  0.72949942  0.49132638  0.88850957    -0.53500
C2140       C  0.75400530  0.51094531  0.88112233     0.10500
C2141       C  0.73863350  0.04145632  0.90364690    -0.53000
C2142       C  0.76258841  0.06041653  0.89609454     0.11100
H2143       H  0.65607014  0.05437401  0.88922627     0.15600
H2144       H  0.77359524  0.07042607  0.87689178     0.01300
H2145       H  0.72755511  0.46007959  0.88814952     0.15900
H2146       H  0.74169977  0.04293398  0.91328466     0.15700
O2147       O  0.62971873  0.00836934  0.99510204    -0.79900
O2148       O  0.62534322  0.96851604  0.94822500    -0.64600
O2149       O  0.61745094  0.98251217  0.97299759    -1.11200
C2150       C  0.69400624  0.37658315  0.98323394     1.07000
O2151       O  0.67042902  0.42615207  0.94294315    -0.77800
O2152       O  0.62466795  0.38722964  0.95855393    -0.65400
Ni2153     Ni  0.59977766  0.02603017  0.98211679     1.34900
C2154       C  0.60485207  0.38534501  0.96802736     0.85700
O2155       O  0.62130247  0.04331034  0.95574247    -0.78400
O2156       O  0.57167931  0.04311558  0.96872639    -0.88600
C2157       C  0.64619467  0.45244258  0.94020511     0.85300
O2158       O  0.63819528  0.06301755  0.97859942    -0.66800
O2159       O  0.68897834  0.36864720  0.97216542    -0.86100
C2160       C  0.67289373  0.05322746  0.97842186     0.86100
C2161       C  0.58727907  0.05472429  0.95912057     1.07700
H2162       H  0.70408589  0.45472687  0.96773144     0.39500
O2163       O  0.67755904  0.44840135  0.96612789    -1.08800
O2164       O  0.61473186  0.40379186  0.97739986    -0.65400
Ni2165     Ni  0.65156682  0.44550291  0.98090344     1.26300
O2166       O  0.68373805  0.02475233  0.97206078    -0.65700
O2167       O  0.68688550  0.40966900  0.98756274    -0.78000
C2168       C  0.61269062  0.47873406  0.99862447     0.85500
O2169       O  0.62719916  0.44655429  0.99616440    -0.65100
Ni2170     Ni  0.67853883  0.39963889  0.95775630     1.27400
Ni2171     Ni  0.65193913  0.99637551  0.96053998     1.26100
H2172       H  0.59542784  0.46935548  0.96967776     0.40000
O2173       O  0.97969539  0.46670258  0.79518464    -0.79900
O2174       O  0.96282150  0.41940256  0.74201553    -0.64600
O2175       O  0.95947330  0.47197018  0.77171013    -1.11200
C2176       C  0.85352566  0.38271295  0.77862511     1.07000
O2177       O  0.90142698  0.42390410  0.74274231    -0.77800
O2178       O  0.84576793  0.43256912  0.75875257    -0.65400
Ni2179     Ni  0.00720331  0.47291724  0.78049426     1.34900
C2180       C  0.85503252  0.46756320  0.75895571     0.85700
O2181       O  0.99975726  0.47901031  0.75057904    -0.78400
O2182       O  0.53922068  0.48144199  0.76629256    -0.88600
C2183       C  0.93059213  0.40626748  0.73921029     0.85300
O2184       O  0.01933686  0.41834460  0.78021306    -0.66800
O2185       O  0.86511193  0.36634768  0.76909969    -0.86100
C2186       C  0.02231666  0.39787009  0.77085441     0.86100
C2187       C  0.53232594  0.48566835  0.75513327     1.07700
H2188       H  0.93833336  0.38919721  0.76854406     0.39500
O2189       O  0.92574858  0.41141020  0.76500420    -1.08800
O2190       O  0.88349977  0.47855257  0.76523131    -0.65400
Ni2191     Ni  0.91143661  0.44715794  0.77712901     1.26300
O2192       O  0.00437447  0.40713332  0.76129802    -0.65700
O2193       O  0.86477827  0.41704164  0.78185186    -0.78000
C2194       C  0.95355275  0.44252829  0.79787739     0.85500
O2195       O  0.93835729  0.42113813  0.78984476    -0.65100
Ni2196     Ni  0.88307221  0.39389934  0.75567859     1.27400
Ni2197     Ni  0.96332189  0.44462137  0.75717160     1.26100
H2198       H  0.95342130  0.49863543  0.76985380     0.40000
C2199       C  0.88680062  0.49728365  0.84179580     0.87500
C2200       C  0.91326021  0.01911542  0.85079155    -0.52800
C2201       C  0.89349120  0.04280645  0.85842641     0.10400
C2202       C  0.84998773  0.04257211  0.85658333     0.21300
C2203       C  0.85716291  0.47597996  0.84985056    -0.53500
C2204       C  0.83797119  0.50025405  0.85753808     0.10500
C2205       C  0.86338672  0.02982533  0.83575232    -0.53000
C2206       C  0.84421926  0.05303473  0.84349073     0.11100
H2207       H  0.94431457  0.01743843  0.85107574     0.15600
H2208       H  0.83415810  0.06212562  0.86277553     0.01300
H2209       H  0.85133675  0.44515929  0.84927451     0.15900
H2210       H  0.86193052  0.03403170  0.82615330     0.15700
O2211       O  0.63948214  0.23450896  0.79539692    -0.79900
O2212       O  0.65751160  0.28103550  0.74226940    -0.64600
O2213       O  0.65995196  0.22845356  0.77202194    -1.11200
C2214       C  0.76550324  0.31840283  0.77880852     1.07000
O2215       O  0.71870060  0.27418846  0.74326229    -0.77800
O2216       O  0.77401070  0.26728377  0.75954989    -0.65400
Ni2217     Ni  0.61221583  0.22710207  0.78073480     1.34900
C2218       C  0.76466545  0.23234753  0.75963590     0.85700
O2219       O  0.61962275  0.22151345  0.75077291    -0.78400
O2220       O  0.58058681  0.21702736  0.76657080    -0.88600
C2221       C  0.69037756  0.29206449  0.73921504     0.85300
O2222       O  0.59901169  0.28145539  0.78018434    -0.66800
O2223       O  0.75396485  0.33420516  0.76917562    -0.86100
C2224       C  0.59694582  0.30238809  0.77088171     0.86100
C2225       C  0.58751674  0.21314630  0.75540881     1.07700
H2226       H  0.68133783  0.31119791  0.76869452     0.39500
O2227       O  0.69381904  0.28878898  0.76526399    -1.08800
O2228       O  0.73595147  0.22145059  0.76579824    -0.65400
Ni2229     Ni  0.70794876  0.25342426  0.77751463     1.26300
O2230       O  0.61545901  0.29343326  0.76141771    -0.65700
O2231       O  0.75450090  0.28405038  0.78217804    -0.78000
C2232       C  0.66546093  0.25880404  0.79813903     0.85500
O2233       O  0.68103768  0.27995629  0.79011159    -0.65100
Ni2234     Ni  0.73665157  0.30549019  0.75593967     1.27400
Ni2235     Ni  0.65629035  0.25572013  0.75742363     1.26100
H2236       H  0.66612669  0.20181783  0.77018663     0.40000
C2237       C  0.73006181  0.19879948  0.84159984     0.87500
C2238       C  0.70309253  0.17526237  0.85008574    -0.52800
C2239       C  0.72245284  0.15078178  0.85760878     0.10400
C2240       C  0.76601404  0.15197925  0.85620178     0.21300
C2241       C  0.75859768  0.21935916  0.85016290    -0.53500
C2242       C  0.77727222  0.19436833  0.85774727     0.10500
C2243       C  0.75459526  0.16725045  0.83538664    -0.53000
C2244       C  0.77326629  0.14327813  0.84309089     0.11100
H2245       H  0.67202034  0.17662356  0.85017659     0.15600
H2246       H  0.78152696  0.13190961  0.86233427     0.01300
H2247       H  0.76419334  0.25027619  0.84997383     0.15900
H2248       H  0.75708079  0.16435097  0.82576626     0.15700
C2249       C  0.97988422  0.19717041  0.64832057     0.87500
C2250       C  0.00894912  0.21777368  0.63991728    -0.52800
C2251       C  0.02705414  0.19301959  0.63214465     0.10400
C2252       C  0.01469837  0.15083223  0.63334787     0.21300
C2253       C  0.95232495  0.17504584  0.63968569    -0.53500
C2254       C  0.97110223  0.15081427  0.63196573     0.10500
C2255       C  0.00363674  0.16452025  0.65426989    -0.53000
C2256       C  0.02171539  0.14085143  0.64638548     0.11100
H2257       H  0.01543491  0.24847485  0.64038830     0.15600
H2258       H  0.02974717  0.13092316  0.62707072     0.01300
H2259       H  0.92126685  0.17681184  0.63973001     0.15900
H2260       H  0.00628282  0.16080808  0.66386151     0.15700
O2261       O  0.96378793  0.28537442  0.74810102    -0.79900
O2262       O  0.93153709  0.27957545  0.69990952    -0.64600
O2263       O  0.94112590  0.28909027  0.72507208    -1.11200
C2264       C  0.83684693  0.21117572  0.73447228     1.07000
O2265       O  0.88930762  0.23476453  0.69461633    -0.77800
O2266       O  0.85044135  0.28267307  0.70996331    -0.65400
Ni2267     Ni  0.48239962  0.31092560  0.73436844     1.34900
C2268       C  0.84639244  0.30183177  0.71954191     0.85700
O2269       O  0.50436088  0.28358748  0.70852629    -0.78400
O2270       O  0.50138141  0.33575617  0.72052982    -0.88600
C2271       C  0.91598330  0.25832513  0.69190486     0.85300
O2272       O  0.51941043  0.27095044  0.73262886    -0.66800
O2273       O  0.82943600  0.21795773  0.72344255    -0.86100
C2274       C  0.51137965  0.23552533  0.73183951     0.86100
C2275       C  0.51485836  0.31829203  0.71147415     1.07700
H2276       H  0.91560323  0.20129625  0.71954123     0.39500
O2277       O  0.90935573  0.22811451  0.71797774    -1.08800
O2278       O  0.86256322  0.29053263  0.72917717    -0.65400
Ni2279     Ni  0.90460498  0.25359706  0.73276876     1.26300
O2280       O  0.48448103  0.22361427  0.72508490    -0.65700
O2281       O  0.86968479  0.21689353  0.73892711    -0.78000
C2282       C  0.93082099  0.29868294  0.74977136     0.85500
O2283       O  0.90328010  0.27647918  0.74827156    -0.65100
Ni2284     Ni  0.86163436  0.22785152  0.70925735     1.27400
Ni2285     Ni  0.95733729  0.25386454  0.71294947     1.26100
H2286       H  0.92740811  0.31011670  0.72127789     0.40000
O2287       O  0.65673787  0.41187854  0.74708365    -0.79900
O2288       O  0.68968014  0.42041955  0.69928247    -0.64600
O2289       O  0.67981346  0.41063458  0.72414870    -1.11200
C2290       C  0.78227828  0.49028213  0.73396290     1.07000
O2291       O  0.73137789  0.46560595  0.69384022    -0.77800
O2292       O  0.77124052  0.41893697  0.70943834    -0.65400
Ni2293     Ni  0.63917073  0.38681039  0.73320514     1.34900
C2294       C  0.77486086  0.39976361  0.71905245     0.85700
O2295       O  0.61625416  0.41514448  0.70764131    -0.78400
O2296       O  0.62154330  0.36218343  0.71920878    -0.88600
C2297       C  0.70502213  0.44152120  0.69121669     0.85300
O2298       O  0.60106937  0.42600478  0.73159874    -0.66800
O2299       O  0.78995867  0.48417722  0.72291228    -0.86100
C2300       C  0.60833740  0.46169911  0.73108274     0.86100
C2301       C  0.60651307  0.38009111  0.71049280     1.07700
H2302       H  0.70359317  0.49911620  0.71877992     0.39500
O2303       O  0.71035651  0.47242711  0.71722283    -1.08800
O2304       O  0.75797180  0.41082136  0.72856263    -0.65400
Ni2305     Ni  0.71525833  0.44680476  0.73200334     1.26300
O2306       O  0.63479580  0.47479414  0.72433920    -0.65700
O2307       O  0.74937525  0.48404386  0.73832122    -0.78000
C2308       C  0.69024079  0.39975644  0.74860179     0.85500
O2309       O  0.71674372  0.42338073  0.74741725    -0.65100
Ni2310     Ni  0.75843776  0.47348888  0.70860952     1.27400
Ni2311     Ni  0.66285716  0.44569136  0.71213448     1.26100
H2312       H  0.69423616  0.39022076  0.72028982     0.40000
C2313       C  0.63704772  0.49642285  0.64752556     0.87500
C2314       C  0.60723315  0.47525910  0.63948589    -0.52800
C2315       C  0.58794980  0.49969364  0.63183750     0.10400
C2316       C  0.60003211  0.04197652  0.63279884     0.21300
C2317       C  0.66335250  0.01852535  0.63851348    -0.53500
C2318       C  0.64347228  0.04228662  0.63091951     0.10500
C2319       C  0.61359954  0.02879214  0.65361325    -0.53000
C2320       C  0.59427376  0.05203395  0.64589315     0.11100
H2321       H  0.60122200  0.44448269  0.64009485     0.15600
H2322       H  0.58411819  0.06164519  0.62664370     0.01300
H2323       H  0.69440282  0.01695039  0.63819115     0.15900
H2324       H  0.61193570  0.03262153  0.66322064     0.15700
O2325       O  0.68598642  0.26987768  0.54537361    -0.79900
O2326       O  0.72850430  0.25354350  0.49197037    -0.64600
O2327       O  0.67945738  0.24945006  0.52213319    -1.11200
C2328       C  0.76880659  0.14247225  0.52900380     1.07000
O2329       O  0.73022258  0.19166838  0.49276496    -0.77800
O2330       O  0.72005538  0.13600244  0.50870251    -0.65400
Ni2331     Ni  0.67916385  0.29772274  0.53073608     1.34900
C2332       C  0.68509213  0.14483942  0.50929363     0.85700
O2333       O  0.66926359  0.28928840  0.50106779    -0.78400
O2334       O  0.66999788  0.33007689  0.51648576    -0.88600
C2335       C  0.74557583  0.22264882  0.48962200     0.85300
O2336       O  0.73350090  0.30842270  0.53018943    -0.66800
O2337       O  0.78536690  0.15469313  0.51960408    -0.86100
C2338       C  0.75323425  0.31147626  0.52072745     0.86100
C2339       C  0.66377167  0.32256422  0.50544532     1.07700
H2340       H  0.76133490  0.22926748  0.51859523     0.39500
O2341       O  0.73965194  0.21601909  0.51511984    -1.08800
O2342       O  0.67381576  0.17298176  0.51576438    -0.65400
Ni2343     Ni  0.70498702  0.20123118  0.52746207     1.26300
O2344       O  0.74235528  0.29503586  0.51107425    -0.65700
O2345       O  0.73476157  0.15403111  0.53217904    -0.78000
C2346       C  0.71040369  0.24368857  0.54805055     0.85500
O2347       O  0.73144588  0.22829250  0.53998191    -0.65100
Ni2348     Ni  0.75880758  0.17323158  0.50597089     1.27400
Ni2349     Ni  0.70511235  0.25336921  0.50738233     1.26100
H2350       H  0.65288027  0.24331233  0.52055452     0.40000
C2351       C  0.65543555  0.17543034  0.59152461     0.87500
C2352       C  0.63354645  0.20159885  0.60066919    -0.52800
C2353       C  0.60991403  0.18143308  0.60815145     0.10400
C2354       C  0.61040135  0.13774518  0.60609071     0.21300
C2355       C  0.67661546  0.14510089  0.59941290    -0.53500
C2356       C  0.65258272  0.12549308  0.60698162     0.10500
C2357       C  0.62325873  0.15225287  0.58530290    -0.53000
C2358       C  0.60013682  0.13273618  0.59297483     0.11100
H2359       H  0.63555504  0.23279388  0.60128551     0.15600
H2360       H  0.59104853  0.12153037  0.61221034     0.01300
H2361       H  0.70725676  0.13925294  0.59886682     0.15900
H2362       H  0.61927983  0.15133215  0.57569148     0.15700
O2363       O  0.91650783  0.42489423  0.54705627    -0.79900
O2364       O  0.87580724  0.43986749  0.49347142    -0.64600
O2365       O  0.92357086  0.44587060  0.52382485    -1.11200
C2366       C  0.83191236  0.05164566  0.52986289     1.07000
O2367       O  0.86964105  0.00125478  0.49372247    -0.77800
O2368       O  0.88112670  0.05738607  0.50934271    -0.65400
Ni2369     Ni  0.92441569  0.39736514  0.53245030     1.34900
C2370       C  0.91625546  0.04914179  0.51027906     0.85700
O2371       O  0.93519595  0.40581899  0.50282150    -0.78400
O2372       O  0.93518777  0.36526509  0.51831596    -0.88600
C2373       C  0.85555651  0.46890274  0.49149481     0.85300
O2374       O  0.87034121  0.38458062  0.53153679    -0.66800
O2375       O  0.81573297  0.03827578  0.52059758    -0.86100
C2376       C  0.85124629  0.38172881  0.52190667     0.86100
C2377       C  0.94118836  0.37269438  0.50726555     1.07700
H2378       H  0.84175150  0.96428440  0.52009548     0.39500
O2379       O  0.86298553  0.97800219  0.51652184    -1.08800
O2380       O  0.92771237  0.02192705  0.51707916    -0.65400
Ni2381     Ni  0.89707374  0.99403691  0.52889787     1.26300
O2382       O  0.86211818  0.39928443  0.51247656    -0.65700
O2383       O  0.86616631  0.04107741  0.53319470    -0.78000
C2384       C  0.89284642  0.95176527  0.54975118     0.85500
O2385       O  0.87153456  0.96732593  0.54173069    -0.65100
Ni2386     Ni  0.84225608  0.01974919  0.50706564     1.27400
Ni2387     Ni  0.89863893  0.44126227  0.50895240     1.26100
H2388       H  0.95012012  0.45239814  0.52233280     0.40000
C2389       C  0.95575671  0.01912303  0.59237620     0.87500
C2390       C  0.97926657  0.49230439  0.60099514    -0.52800
C2391       C  0.50351830  0.51202710  0.60840978     0.10400
C2392       C  0.50223393  0.05598110  0.60670291     0.21300
C2393       C  0.93531117  0.04836457  0.60078180    -0.53500
C2394       C  0.96002108  0.06752202  0.60822775     0.10500
C2395       C  0.48681063  0.04330168  0.58596523    -0.53000
C2396       C  0.51065565  0.06244540  0.59349380     0.11100
H2397       H  0.47783741  0.46102795  0.60130599     0.15600
H2398       H  0.52214752  0.07189459  0.61271089     0.01300
H2399       H  0.90457041  0.05392600  0.60063340     0.15900
H2400       H  0.48948815  0.04524248  0.57632404     0.15700
C2401       C  0.41184424  0.94367661  0.57107627    -0.12400
C2402       C  0.89594088  0.96747838  0.56212336     0.09800
C2403       C  0.89277723  0.00736041  0.56442078    -0.12400
C2404       C  0.90914142  0.02332321  0.57480270    -0.12400
C2405       C  0.92926836  0.99990189  0.58310113     0.09800
C2406       C  0.42821514  0.95949783  0.58137705    -0.12400
H2407       H  0.41445240  0.91272373  0.56966819     0.13800
H2408       H  0.88091448  0.02663399  0.55773150     0.13800
H2409       H  0.90886152  0.05450829  0.57586670     0.13800
H2410       H  0.44208829  0.93963563  0.58742677     0.13800
C2411       C  0.54138283  0.08725542  0.58971159    -0.12300
C2412       C  0.56848774  0.10872851  0.58948557    -0.13900
C2413       C  0.78833000  0.33560578  0.52092155    -0.12300
C2414       C  0.81675148  0.35677361  0.52144001    -0.13900
C2415       C  0.81076350  0.08328311  0.53541403    -0.12300
C2416       C  0.78915834  0.11119280  0.53506074    -0.13900
C2417       C  0.69247947  0.25178152  0.56940471    -0.12400
C2418       C  0.70895179  0.22842534  0.56048570     0.09800
C2419       C  0.71515999  0.18902163  0.56302778    -0.12400
C2420       C  0.70106115  0.17276267  0.57368922    -0.12400
C2421       C  0.68052484  0.19547895  0.58205508     0.09800
C2422       C  0.67853324  0.23571748  0.57999615    -0.12400
H2423       H  0.68753222  0.28235464  0.56778954     0.13800
H2424       H  0.72767562  0.17011425  0.55636760     0.13800
H2425       H  0.70338217  0.14172612  0.57494421     0.13800
H2426       H  0.66362731  0.25505203  0.58595388     0.13800
C2427       C  0.66337930  0.09429943  0.61499585    -0.12300
C2428       C  0.66034480  0.06862833  0.62230768    -0.13900
C2429       C  0.53043614  0.49442333  0.61678768    -0.12300
C2430       C  0.55635899  0.48984679  0.62391637    -0.13900
C2431       C  0.71291187  0.95586793  0.66940351    -0.12400
C2432       C  0.68946170  0.44287501  0.67881435     0.09800
C2433       C  0.64980608  0.43963521  0.67670949    -0.12400
C2434       C  0.63363617  0.45348439  0.66601514    -0.12400
C2435       C  0.65660549  0.47103464  0.65713922     0.09800
C2436       C  0.69687391  0.96932059  0.65867193    -0.12400
H2437       H  0.74370036  0.95820052  0.67067336     0.13800
H2438       H  0.63083533  0.42977894  0.68372903     0.13800
H2439       H  0.60263129  0.45361936  0.66511969     0.13800
H2440       H  0.71640458  0.98077842  0.65211129     0.13800
C2441       C  0.82148358  0.33666403  0.71956631    -0.12300
C2442       C  0.79994143  0.36507296  0.71935122    -0.13900
C2443       C  0.54616071  0.33864342  0.70557413    -0.12300
C2444       C  0.57403759  0.35998768  0.70518309    -0.13900
C2445       C  0.94975376  0.09807758  0.61652030    -0.12300
C2446       C  0.95318808  0.12390571  0.62374713    -0.13900
C2447       C  0.55803611  0.20262649  0.62399963    -0.12300
C2448       C  0.58359561  0.19850020  0.61675105    -0.13900
C2449       C  0.56898925  0.08284089  0.64941888    -0.12300
C2450       C  0.54674804  0.10950803  0.64962541    -0.13900
C2451       C  0.92188723  0.22653611  0.65976884    -0.12400
C2452       C  0.96191614  0.22334263  0.65801264     0.09800
C2453       C  0.98603993  0.24086530  0.66660537    -0.12400
C2454       C  0.97096735  0.25672543  0.67720348    -0.12400
C2455       C  0.93127270  0.25564236  0.67947296     0.09800
C2456       C  0.90693668  0.24222631  0.67033943    -0.12400
H2457       H  0.90159698  0.21493829  0.65346572     0.13800
H2458       H  0.51696806  0.23941707  0.66555714     0.13800
H2459       H  0.49063168  0.26650183  0.68404539     0.13800
H2460       H  0.87613510  0.24122153  0.67174721     0.13800
C2461       C  0.78470417  0.20799640  0.75118321    -0.12300
C2462       C  0.80636486  0.20262787  0.74285069    -0.13900
C2463       C  0.55670922  0.20422495  0.74725424    -0.12300
C2464       C  0.53332614  0.21025913  0.73947232    -0.13900
C2465       C  0.69521465  0.33204928  0.73914990    -0.12300
C2466       C  0.69707079  0.36287159  0.74379766    -0.13900
C2467       C  0.71953184  0.26066945  0.81320682    -0.12400
C2468       C  0.68018117  0.25692876  0.81064441     0.09800
C2469       C  0.65611254  0.24185112  0.81959549    -0.12400
C2470       C  0.67129029  0.22657802  0.83018748    -0.12400
C2471       C  0.71132074  0.22540080  0.83213521     0.09800
C2472       C  0.73487242  0.24511900  0.82383106    -0.12400
H2473       H  0.73896717  0.27216085  0.80655398     0.13800
H2474       H  0.62552389  0.23902783  0.81799844     0.13800
H2475       H  0.65130615  0.21338861  0.83628470     0.13800
H2476       H  0.76574681  0.24550335  0.82507714     0.13800
C2477       C  0.81996387  0.08481065  0.83994997    -0.12300
C2478       C  0.79836932  0.11208144  0.83968109    -0.13900
C2479       C  0.92746575  0.36630852  0.74026777    -0.12300
C2480       C  0.92559697  0.33606913  0.74525480    -0.13900
C2481       C  0.83457740  0.49230439  0.75067567    -0.12300
C2482       C  0.81265598  0.49835325  0.74243989    -0.13900
C2483       C  0.56337295  0.49261242  0.74688556    -0.12300
C2484       C  0.58628275  0.48592811  0.73901449    -0.13900
C2485       C  0.82305345  0.36187330  0.78470180    -0.12300
C2486       C  0.79580974  0.33977968  0.78477901    -0.13900
C2487       C  0.54846833  0.36400805  0.77090380    -0.12300
C2488       C  0.57123351  0.33659163  0.77090479    -0.13900
C2489       C  0.89841985  0.44183411  0.81241095    -0.12400
C2490       C  0.93806295  0.44448085  0.81026490     0.09800
C2491       C  0.96185629  0.45740386  0.81960038    -0.12400
C2492       C  0.94620406  0.47063795  0.83039958    -0.12400
C2493       C  0.90601927  0.47217142  0.83209131     0.09800
C2494       C  0.88268147  0.45523286  0.82320253    -0.12400
H2495       H  0.87919123  0.43253154  0.80539437     0.13800
H2496       H  0.99263477  0.95961506  0.81824073     0.12200
H2497       H  0.96597358  0.98185190  0.83692363     0.13800
H2498       H  0.85170148  0.45557552  0.82417402     0.13800
C2499       C  0.80686660  0.48983900  0.86558072    -0.12300
C2500       C  0.78095940  0.49352239  0.87275291    -0.13900
C2501       C  0.70515079  0.12343339  0.86586204    -0.12300
C2502       C  0.70168044  0.09772174  0.87315788    -0.13900
C2503       C  0.67847517  0.95903722  0.90829524    -0.12400
C2504       C  0.68023977  0.49937580  0.90657979     0.09800
C2505       C  0.66096510  0.52311453  0.91496199    -0.12400
C2506       C  0.64508497  0.50741986  0.92543826    -0.12400
C2507       C  0.64812985  0.46756258  0.92777694     0.09800
C2508       C  0.66281231  0.94351002  0.91875353    -0.12400
H2509       H  0.69151455  0.93899279  0.90213724     0.13800
H2510       H  0.66113624  0.55430537  0.91389506     0.13800
H2511       H  0.63393227  0.52688994  0.93217436     0.13800
H2512       H  0.66512518  0.91255149  0.92021744     0.13800
C2513       C  0.54296307  0.33836112  0.96837122    -0.12300
C2514       C  0.57077379  0.36017717  0.96828805    -0.13900
C2515       C  0.54367566  0.11304962  0.95354466    -0.12300
C2516       C  0.56586664  0.08558807  0.95323896    -0.13900
C2517       C  0.91057594  0.06919199  0.86697821    -0.12300
C2518       C  0.91394957  0.09502448  0.87421001    -0.13900
C2519       C  0.80760667  0.20407347  0.86610258    -0.12300
C2520       C  0.83317016  0.19971347  0.87334155    -0.13900
C2521       C  0.79375624  0.08479160  0.89978610    -0.12300
C2522       C  0.82058991  0.10664443  0.89986852    -0.13900
C2523       C  0.94964805  0.17119771  0.91638851    -0.12400
C2524       C  0.93238820  0.19436845  0.90745801     0.09800
C2525       C  0.93599865  0.23491554  0.90857318    -0.12400
C2526       C  0.95083053  0.25142298  0.91903751    -0.12400
C2527       C  0.96329317  0.22806714  0.92858611     0.09800
C2528       C  0.96479126  0.18778943  0.92682926    -0.12400
H2529       H  0.94841808  0.13991620  0.91574597     0.13800
H2530       H  0.92540290  0.25446774  0.90182435     0.13800
H2531       H  0.95004911  0.28264582  0.91999750     0.13800
H2532       H  0.97432761  0.16884663  0.93393800     0.13800
C2533       C  0.89850501  0.18455785  0.17541618    -0.12400
C2534       C  0.93805906  0.18790548  0.17767030     0.09800
C2535       C  0.96168127  0.20265723  0.16855656    -0.12400
C2536       C  0.94593060  0.21770566  0.15803090    -0.12400
C2537       C  0.90581359  0.21868083  0.15630386     0.09800
C2538       C  0.88262907  0.19964932  0.16483850    -0.12400
H2539       H  0.87941464  0.17356265  0.18224489     0.13800
H2540       H  0.99238901  0.20527789  0.16995148     0.13800
H2541       H  0.96556683  0.23070085  0.15178543     0.13800
H2542       H  0.85167229  0.19944850  0.16378628     0.13800
C2543       C  0.79647487  0.35739043  0.14948767    -0.12300
C2544       C  0.81828278  0.33045644  0.14922107    -0.13900
C2545       C  0.54977015  0.10620781  0.21678763    -0.12300
C2546       C  0.57095490  0.07768026  0.21707081    -0.13900
C2547       C  0.79523475  0.08298826  0.20524447    -0.12300
C2548       C  0.82267231  0.10504978  0.20485703    -0.13900
C2549       C  0.73462158  0.48847570  0.16565594    -0.12400
C2550       C  0.71083006  0.47061437  0.15704909     0.09800
C2551       C  0.67078054  0.47244027  0.15888231    -0.12400
C2552       C  0.65569119  0.48579853  0.16971602    -0.12400
C2553       C  0.67993708  0.49868821  0.17892624     0.09800
C2554       C  0.71939640  0.50215009  0.17650030    -0.12400
H2555       H  0.76553993  0.48836123  0.16448810     0.13800
H2556       H  0.65063227  0.96121205  0.15246881     0.13800
H2557       H  0.62497933  0.98349054  0.17122059     0.13800
H2558       H  0.73893510  0.51190679  0.18337926     0.13800
C2559       C  0.57290635  0.48079078  0.99730306    -0.12300
C2560       C  0.54205172  0.48306883  0.99284536    -0.13900
C2561       C  0.91805532  0.37793759  0.99995672    -0.12300
C2562       C  0.91171794  0.35538159  0.99190889    -0.13900
C2563       C  0.90970866  0.10642821  0.99695544    -0.12300
C2564       C  0.91536299  0.12809642  0.98861015    -0.13900
C2565       C  0.83235527  0.44664972  0.11573503    -0.12300
C2566       C  0.80673634  0.44979578  0.12301716    -0.13900
C2567       C  0.91466649  0.34466833  0.11508713    -0.12300
C2568       C  0.91025864  0.31882665  0.12228172    -0.13900
C2569       C  0.93117209  0.48421902  0.07963225    -0.12400
C2570       C  0.93093146  0.44369851  0.08126047     0.09800
C2571       C  0.95022939  0.42101851  0.07259191    -0.12400
C2572       C  0.96521479  0.43780306  0.06209268    -0.12400
C2573       C  0.96144151  0.47781738  0.06000030     0.09800
C2574       C  0.94585943  0.50081136  0.06917486    -0.12400
H2575       H  0.91830550  0.00377239  0.08599271     0.13800
H2576       H  0.95111072  0.38979253  0.07352505     0.13800
H2577       H  0.97678819  0.41907138  0.05522618     0.13800
H2578       H  0.94293795  0.03188530  0.06795726     0.13800
C2579       C  0.54206965  0.09004822  0.02029286    -0.12300
C2580       C  0.57070067  0.11082711  0.02014054    -0.13900
C2581       C  0.56916460  0.33591978  0.03359204    -0.12300
C2582       C  0.54761717  0.36400131  0.03354927    -0.13900
C2583       C  0.57153277  0.22229410  0.99143819    -0.12300
C2584       C  0.54131727  0.22394321  0.99627129    -0.13900
C2585       C  0.70304426  0.09386104  0.99533459    -0.12300
C2586       C  0.69738695  0.07269001  0.98688883    -0.13900
C2587       C  0.70244817  0.34605334  0.99170333    -0.12300
C2588       C  0.69667541  0.32327634  0.99975126    -0.13900
C2589       C  0.69967622  0.34410089  0.11592547    -0.12300
C2590       C  0.70341093  0.36963987  0.12324735    -0.13900
C2591       C  0.80702424  0.23754836  0.12304157    -0.12300
C2592       C  0.78098897  0.24104152  0.11592990    -0.13900
C2593       C  0.79342240  0.33358992  0.08962970    -0.12300
C2594       C  0.82079755  0.35464984  0.08939665    -0.13900
C2595       C  0.68327985  0.20719024  0.07934427    -0.12400
C2596       C  0.68226390  0.24732407  0.08164811     0.09800
C2597       C  0.66335659  0.27121469  0.07320497    -0.12400
C2598       C  0.65015851  0.25622902  0.06226730    -0.12400
C2599       C  0.65491428  0.21677693  0.05956324     0.09800
C2600       C  0.67017176  0.19233628  0.06845873    -0.12400
H2601       H  0.69653328  0.18698528  0.08542135     0.13800
H2602       H  0.66185186  0.30221441  0.07463176     0.13800
H2603       H  0.63904260  0.27601445  0.05559563     0.13800
H2604       H  0.67417365  0.16171757  0.06671070     0.13800
C2605       C  0.94866608  0.09337950  0.49471470    -0.12300
C2606       C  0.94172116  0.07063468  0.50264093    -0.13900
C2607       C  0.94281350  0.31985890  0.49066965    -0.12300
C2608       C  0.94896713  0.34178952  0.49889574    -0.13900
C2609       C  0.81536099  0.22197594  0.49639295    -0.12300
C2610       C  0.78507492  0.22351171  0.49155603    -0.13900
C2611       C  0.91905126  0.19142048  0.42124417    -0.12400
C2612       C  0.90363461  0.21589456  0.43011431     0.09800
C2613       C  0.90036134  0.25557092  0.42750393    -0.12400
C2614       C  0.91562982  0.27073454  0.41684991    -0.12400
C2615       C  0.93514162  0.24684558  0.40856277     0.09800
C2616       C  0.93444194  0.20653159  0.41062973    -0.12400
H2617       H  0.42167854  0.16058328  0.42288437     0.13800
H2618       H  0.88899054  0.27538291  0.43411161     0.13800
H2619       H  0.91510076  0.30182878  0.41555024     0.13800
H2620       H  0.44787579  0.18638811  0.40457027     0.13800
C2621       C  0.57225279  0.35731528  0.40104688    -0.12300
C2622       C  0.54581493  0.33508581  0.40112183    -0.13900
C2623       C  0.78593832  0.46686061  0.49919808    -0.12300
C2624       C  0.81695890  0.46532997  0.49480595    -0.13900
C2625       C  0.66245588  0.37494864  0.48867592    -0.12300
C2626       C  0.65624701  0.35337017  0.49699727    -0.13900
C2627       C  0.65486659  0.10073544  0.49334397    -0.12300
C2628       C  0.66021747  0.12340766  0.50142647    -0.13900
C2629       C  0.79022203  0.08597718  0.47015745    -0.12300
C2630       C  0.81869560  0.10715141  0.47011195    -0.13900
C2631       C  0.81746159  0.33516731  0.45504984    -0.12300
C2632       C  0.79497272  0.36253994  0.45502835    -0.13900
C2633       C  0.71561025  0.43933135  0.42743126    -0.12400
C2634       C  0.71235766  0.47930363  0.42954824     0.09800
C2635       C  0.69865636  0.50296834  0.42023098    -0.12400
C2636       C  0.68439963  0.48681478  0.40964368    -0.12400
C2637       C  0.68270230  0.44626269  0.40813626     0.09800
C2638       C  0.70109657  0.42306489  0.41685019    -0.12400
H2639       H  0.72599173  0.42019012  0.43437879     0.13800
H2640       H  0.69633562  0.53401360  0.42148317     0.13800
H2641       H  0.67257139  0.50654010  0.40314747     0.13800
H2642       H  0.70110219  0.39182378  0.41595685     0.13800
C2643       C  0.78374242  0.45019037  0.23897364    -0.12300
C2644       C  0.80628870  0.44465657  0.24709282    -0.13900
C2645       C  0.53351906  0.45240777  0.25101692    -0.12300
C2646       C  0.55507296  0.44688911  0.24261793    -0.13900
C2647       C  0.94402166  0.07321514  0.23835514    -0.12300
C2648       C  0.94808404  0.10432836  0.24266768    -0.13900
C2649       C  0.55722178  0.45457790  0.36690137    -0.12300
C2650       C  0.58247841  0.45103477  0.37427497    -0.13900
C2651       C  0.95637543  0.37206628  0.36784826    -0.12300
C2652       C  0.95363874  0.34573846  0.37499534    -0.13900
C2653       C  0.98292946  0.48957216  0.32444832    -0.12400
C2654       C  0.95963038  0.47051025  0.33296885     0.09800
C2655       C  0.91973121  0.46975274  0.33081091    -0.12400
C2656       C  0.90449072  0.48330913  0.31999060    -0.12400
C2657       C  0.92833590  0.49858412  0.31099293     0.09800
C2658       C  0.96755018  0.50331037  0.31359815    -0.12400
H2659       H  0.51375232  0.49088989  0.32575707     0.13800
H2660       H  0.90006341  0.45628563  0.33695712     0.13800
H2661       H  0.87407367  0.47934333  0.31833002     0.13800
H2662       H  0.48690082  0.51452156  0.30687558     0.13800
C2663       C  0.79961117  0.10728754  0.27167448    -0.12300
C2664       C  0.82071943  0.07856754  0.27143122    -0.13900
C2665       C  0.54450639  0.08508874  0.28403165    -0.12300
C2666       C  0.57219809  0.10680347  0.28361163    -0.13900
C2667       C  0.69403702  0.07485838  0.25083345    -0.12300
C2668       C  0.69950797  0.10530570  0.24619487    -0.13900
C2669       C  0.81810755  0.23706049  0.24770772    -0.12300
C2670       C  0.84033741  0.23037868  0.23957423    -0.13900
C2671       C  0.59015344  0.23183572  0.24840702    -0.12300
C2672       C  0.56766671  0.23800377  0.24032734    -0.13900
C2673       C  0.53569344  0.24185140  0.37452000    -0.12300
C2674       C  0.56099310  0.23801990  0.36712548    -0.13900
C2675       C  0.66075496  0.32149213  0.36717310    -0.12300
C2676       C  0.66343936  0.34753085  0.37442691    -0.13900
C2677       C  0.56857742  0.33222182  0.34094337    -0.12300
C2678       C  0.54703292  0.35940334  0.34108918    -0.13900
C2679       C  0.63372056  0.20139969  0.32428185    -0.12400
C2680       C  0.65704836  0.22161736  0.33254793     0.09800
C2681       C  0.69690398  0.22224181  0.33027857    -0.12400
C2682       C  0.71204513  0.20712786  0.31964250    -0.12400
C2683       C  0.68812586  0.19087510  0.31082725     0.09800
C2684       C  0.64899089  0.18623809  0.31357592    -0.12400
H2685       H  0.60295587  0.19996542  0.32568631     0.13800
H2686       H  0.71665845  0.23652032  0.33621220     0.13800
H2687       H  0.74247034  0.21082324  0.31792825     0.13800
H2688       H  0.62960077  0.17400227  0.30703898     0.13800
C2689       C  0.63805503  0.74681906  0.34236748     0.87500
C2690       C  0.66451850  0.77047779  0.35102022    -0.52800
C2691       C  0.64455093  0.79382170  0.35877849     0.10400
C2692       C  0.60106867  0.79156924  0.35733761     0.21300
C2693       C  0.61008248  0.72488902  0.35085644    -0.53500
C2694       C  0.59086003  0.74884384  0.35864933     0.10500
C2695       C  0.61277616  0.77815472  0.33641464    -0.53000
C2696       C  0.59368639  0.80102404  0.34427568     0.11100
H2697       H  0.69562404  0.76997406  0.35101379     0.15600
H2698       H  0.58505853  0.81084506  0.36357435     0.01300
H2699       H  0.60534485  0.69384589  0.35048888     0.15900
H2700       H  0.61030025  0.78193768  0.32681868     0.15700
O2701       O  0.72976250  0.71135224  0.29548533    -0.79900
O2702       O  0.72189992  0.66495774  0.24235200    -0.64600
O2703       O  0.71152903  0.71635795  0.27198351    -1.11200
C2704       C  0.60427304  0.62668465  0.27786480     1.07000
O2705       O  0.66167706  0.65546771  0.24173329    -0.77800
O2706       O  0.60331065  0.67183736  0.25592662    -0.65400
Ni2707     Ni  0.75883629  0.71710802  0.28107768     1.34900
C2708       C  0.61101409  0.70735663  0.25662826     0.85700
O2709       O  0.75378821  0.72577972  0.25138610    -0.78400
O2710       O  0.79274600  0.72550689  0.26713767    -0.88600
C2711       C  0.69492856  0.64210423  0.24091609     0.85300
O2712       O  0.77062019  0.66225122  0.28097821    -0.66800
O2713       O  0.61862349  0.60847337  0.26907873    -0.86100
C2714       C  0.77493609  0.64233120  0.27155052     0.86100
C2715       C  0.78651891  0.73097514  0.25597147     1.07700
H2716       H  0.69361770  0.63413708  0.26926871     0.39500
O2717       O  0.68040344  0.65472654  0.26507990    -1.08800
O2718       O  0.63665508  0.71989750  0.26380491    -0.65400
Ni2719     Ni  0.66263371  0.69099910  0.27664466     1.26300
O2720       O  0.75928985  0.65301391  0.26180544    -0.65700
O2721       O  0.61500154  0.66142090  0.28075659    -0.78000
C2722       C  0.70277732  0.68817646  0.29825521     0.85500
O2723       O  0.68696204  0.66669576  0.29032018    -0.65100
Ni2724     Ni  0.64049246  0.63170629  0.25538033     1.27400
Ni2725     Ni  0.71803658  0.68962288  0.25750220     1.26100
H2726       H  0.70552618  0.74304881  0.27014292     0.40000
C2727       C  0.97895696  0.94565697  0.34276269     0.87500
C2728       C  0.95273613  0.92296908  0.35170767    -0.52800
C2729       C  0.97283453  0.89950054  0.35938655     0.10400
C2730       C  0.01627894  0.90086555  0.35763375     0.21300
C2731       C  0.00787277  0.96747082  0.35090143    -0.53500
C2732       C  0.02721926  0.94353405  0.35864641     0.10500
C2733       C  0.00320189  0.91365751  0.33676215    -0.53000
C2734       C  0.02252049  0.89077211  0.34455909     0.11100
H2735       H  0.92165747  0.92412710  0.35194622     0.15600
H2736       H  0.03242901  0.88158422  0.36384509     0.01300
H2737       H  0.01287999  0.49839669  0.35038373     0.15900
H2738       H  0.00497999  0.90956476  0.32716542     0.15700
O2739       O  0.88798186  0.97597834  0.29564066    -0.79900
O2740       O  0.90536399  0.52346068  0.24257121    -0.64600
O2741       O  0.90921015  0.97032672  0.27226757    -1.11200
C2742       C  0.51317913  0.56316786  0.27864469     1.07000
O2743       O  0.96637726  0.51608413  0.24349829    -0.77800
O2744       O  0.52210571  0.51149289  0.25958601    -0.65400
Ni2745     Ni  0.86121303  0.96778827  0.28087972     1.34900
C2746       C  0.51358450  0.97626642  0.25966915     0.85700
O2747       O  0.86892668  0.96287366  0.25088467    -0.78400
O2748       O  0.82996137  0.95682763  0.26662079    -0.88600
C2749       C  0.93823273  0.53354324  0.23921926     0.85300
O2750       O  0.84653048  0.52181836  0.28032844    -0.66800
O2751       O  0.50046116  0.57834846  0.26906695    -0.86100
C2752       C  0.84508094  0.54343942  0.27116367     0.86100
C2753       C  0.83691517  0.95368921  0.25542359     1.07700
H2754       H  0.92881449  0.55357009  0.26892795     0.39500
O2755       O  0.94162721  0.53134390  0.26550571    -1.08800
O2756       O  0.48550562  0.96485020  0.26604321    -0.65400
Ni2757     Ni  0.95672077  0.49650278  0.27778375     1.26300
O2758       O  0.86369015  0.53486013  0.26169506    -0.65700
O2759       O  0.50271400  0.52880952  0.28229430    -0.78000
C2760       C  0.91374775  0.00048131  0.29844439     0.85500
O2761       O  0.92914214  0.02206748  0.29045978    -0.65100
Ni2762     Ni  0.48367519  0.54857848  0.25599076     1.27400
Ni2763     Ni  0.90483540  0.49768117  0.25766220     1.26100
H2764       H  0.91601274  0.94385406  0.27042264     0.40000
O2765       O  0.72954968  0.93852525  0.49691736    -0.79900
O2766       O  0.73465216  0.97929923  0.45007005    -0.64600
O2767       O  0.74216883  0.96514222  0.47489996    -1.11200
C2768       C  0.66433030  0.57041966  0.48490797     1.07000
O2769       O  0.68968642  0.02141861  0.44460006    -0.77800
O2770       O  0.73515702  0.56017408  0.46050010    -0.65400
Ni2771     Ni  0.75986768  0.92138469  0.48396512     1.34900
C2772       C  0.75507615  0.56177540  0.46998149     0.85700
O2773       O  0.73888385  0.90440381  0.45760564    -0.78400
O2774       O  0.78841334  0.90470684  0.47060859    -0.88600
C2775       C  0.71394343  0.99503366  0.44195549     0.85300
O2776       O  0.72151879  0.88456344  0.48024917    -0.66800
O2777       O  0.66984596  0.57852698  0.47386177    -0.86100
C2778       C  0.68686506  0.89450131  0.48019457     0.86100
C2779       C  0.77300954  0.89310021  0.46097831     1.07700
H2780       H  0.65557348  0.99276139  0.46939127     0.39500
O2781       O  0.68212605  0.99914628  0.46787099    -1.08800
O2782       O  0.74467862  0.54367730  0.47939533    -0.65400
Ni2783     Ni  0.70762164  0.00189330  0.48274606     1.26300
O2784       O  0.67601677  0.92309400  0.47387980    -0.65700
O2785       O  0.67186432  0.53747188  0.48929231    -0.78000
C2786       C  0.74608827  0.96826748  0.50051869     0.85500
O2787       O  0.73117858  0.00035442  0.49814232    -0.65100
Ni2788     Ni  0.68114103  0.54779179  0.45946105     1.27400
Ni2789     Ni  0.70796620  0.95134572  0.46236410     1.26100
H2790       H  0.76418768  0.97841819  0.47162951     0.40000
C2791       C  0.65690759  0.92678256  0.39871981     0.87500
C2792       C  0.67773422  0.89782060  0.39023788    -0.52800
C2793       C  0.65325011  0.87848530  0.38270283     0.10400
C2794       C  0.61101117  0.88976148  0.38423080     0.21300
C2795       C  0.63318757  0.95352705  0.39018768    -0.53500
C2796       C  0.60935552  0.93370102  0.38268540     0.10500
C2797       C  0.62601843  0.90204646  0.40501287    -0.53000
C2798       C  0.60255036  0.88284339  0.39739651     0.11100
H2799       H  0.70848761  0.89240827  0.39045836     0.15600
H2800       H  0.59126628  0.87385246  0.37816563     0.01300
H2801       H  0.63382964  0.48480739  0.39005912     0.15900
H2802       H  0.62320825  0.89969572  0.41464195     0.15700
O2803       O  0.86981482  0.75448875  0.49780792    -0.79900
O2804       O  0.87758852  0.71762702  0.45029248    -0.64600
O2805       O  0.86470791  0.72964018  0.47521549    -1.11200
C2806       C  0.94079741  0.62395368  0.48625042     1.07000
O2807       O  0.92270578  0.67440157  0.44578517    -0.77800
O2808       O  0.87409716  0.63445140  0.46089741    -0.65400
Ni2809     Ni  0.84423964  0.77284688  0.48409841     1.34900
C2810       C  0.85311125  0.63218109  0.47016517     0.85700
O2811       O  0.87213329  0.79203669  0.45836119    -0.78400
O2812       O  0.81973316  0.79097102  0.47017413    -0.88600
C2813       C  0.89967777  0.70129639  0.44263079     0.85300
O2814       O  0.88405170  0.80960823  0.48195941    -0.66800
O2815       O  0.93702196  0.61620265  0.47513143    -0.86100
C2816       C  0.91884307  0.79982707  0.48214722     0.86100
C2817       C  0.83751181  0.80351996  0.46108637     1.07700
H2818       H  0.95217401  0.70215332  0.47118452     0.39500
O2819       O  0.92590980  0.69596656  0.46918222    -1.08800
O2820       O  0.86189484  0.65053941  0.47965546    -0.65400
Ni2821     Ni  0.89802983  0.69248497  0.48359306     1.26300
O2822       O  0.93074162  0.77176774  0.47577937    -0.65700
O2823       O  0.93273484  0.65678255  0.49059762    -0.78000
C2824       C  0.85352664  0.72324038  0.50010938     0.85500
O2825       O  0.87210554  0.69276634  0.49860522    -0.65100
Ni2826     Ni  0.92824172  0.64746529  0.46070084     1.27400
Ni2827     Ni  0.90145552  0.74437667  0.46344502     1.26100
H2828       H  0.84370070  0.71629110  0.47138410     0.40000
C2829       C  0.96103654  0.76595074  0.39901506     0.87500
C2830       C  0.93998333  0.79484527  0.39056928    -0.52800
C2831       C  0.96423663  0.81433161  0.38301989     0.10400
C2832       C  0.00656390  0.80307794  0.38441459     0.21300
C2833       C  0.98465118  0.73921268  0.39043527    -0.53500
C2834       C  0.00844420  0.75911116  0.38286943     0.10500
C2835       C  0.99203228  0.79069278  0.40522800    -0.53000
C2836       C  0.51535234  0.80988817  0.39755507     0.11100
H2837       H  0.90924543  0.80033718  0.39088892     0.15600
H2838       H  0.52609899  0.81913978  0.37831274     0.01300
H2839       H  0.98380561  0.70787998  0.39036306     0.15900
H2840       H  0.99507850  0.79294566  0.41485099     0.15700
C2841       C  0.70725619  0.76624624  0.09140328     0.87500
C2842       C  0.73019958  0.73911278  0.10005221    -0.52800
C2843       C  0.75388976  0.75863941  0.10768735     0.10400
C2844       C  0.75253877  0.80255357  0.10622409     0.21300
C2845       C  0.68603215  0.79501084  0.09982852    -0.53500
C2846       C  0.71022973  0.81386710  0.10754684     0.10500
C2847       C  0.73867963  0.79086079  0.08536324    -0.53000
C2848       C  0.76190895  0.80959608  0.09313205     0.11100
H2849       H  0.72905042  0.70780654  0.10016667     0.15600
H2850       H  0.77204635  0.81820199  0.11242600     0.01300
H2851       H  0.65529704  0.80050956  0.09949356     0.15900
H2852       H  0.74231606  0.79308012  0.07575752     0.15700
O2853       O  0.67529765  0.67535902  0.04409709    -0.79900
O2854       O  0.62789108  0.69224215  0.99108819    -0.64600
O2855       O  0.67959134  0.69693240  0.02081104    -1.11200
C2856       C  0.58965812  0.80399408  0.02783100     1.07000
O2857       O  0.62655480  0.75403548  0.99163508    -0.77800
O2858       O  0.63729294  0.81025767  0.00728581    -0.65400
Ni2859     Ni  0.68100286  0.64812332  0.02932061     1.34900
C2860       C  0.67233779  0.80166819  0.00771327     0.85700
O2861       O  0.68778841  0.65712945  0.99961259    -0.78400
O2862       O  0.68949628  0.61610603  0.01497151    -0.88600
C2863       C  0.61066347  0.72304589  0.98883831     0.85300
O2864       O  0.62673931  0.63653563  0.02917916    -0.66800
O2865       O  0.57276079  0.79113928  0.01859574    -0.86100
C2866       C  0.60592195  0.63453518  0.01990480     0.86100
C2867       C  0.69462004  0.62399208  0.00390295     1.07700
H2868       H  0.59735739  0.71702931  0.01793015     0.39500
O2869       O  0.61870248  0.73020028  0.01422501    -1.08800
O2870       O  0.68413567  0.77366376  0.01418102    -0.65400
Ni2871     Ni  0.65429838  0.74537260  0.02625657     1.26300
O2872       O  0.61573376  0.65165702  0.01027833    -0.65700
O2873       O  0.62392091  0.79257709  0.03098800    -0.78000
C2874       C  0.65194721  0.70219343  0.04705076     0.85500
O2875       O  0.63001388  0.71817594  0.03925620    -0.65100
Ni2876     Ni  0.59875154  0.77255130  0.00495083     1.27400
Ni2877     Ni  0.65264113  0.69292222  0.00626692     1.26100
H2878       H  0.70597835  0.70318676  0.01898958     0.40000
C2879       C  0.90596303  0.92385729  0.09089675     0.87500
C2880       C  0.88260849  0.95028949  0.09965805    -0.52800
C2881       C  0.85950175  0.93012276  0.10732257     0.10400
C2882       C  0.86160203  0.88636733  0.10575264     0.21300
C2883       C  0.92777263  0.89509780  0.09921201    -0.53500
C2884       C  0.90399589  0.87565653  0.10693493     0.10500
C2885       C  0.87478179  0.89882301  0.08486241    -0.53000
C2886       C  0.85207556  0.87944596  0.09269005     0.11100
H2887       H  0.88300527  0.48145355  0.09981804     0.15600
H2888       H  0.84251709  0.87022267  0.11197656     0.01300
H2889       H  0.95854216  0.88990520  0.09875903     0.15900
H2890       H  0.87098865  0.89674176  0.07526392     0.15700
O2891       O  0.94097314  0.02156149  0.04510620    -0.79900
O2892       O  0.98354194  0.00905604  0.99155217    -0.64600
O2893       O  0.93516049  0.00185681  0.02175594    -1.11200
C2894       C  0.52680865  0.89586778  0.02787393     1.07000
O2895       O  0.48939534  0.94758515  0.99177860    -0.77800
O2896       O  0.97825761  0.89074407  0.00717284    -0.65400
Ni2897     Ni  0.93407258  0.54994986  0.03051925     1.34900
C2898       C  0.94313457  0.89902442  0.00790813     0.85700
O2899       O  0.92374783  0.54245284  0.00086683    -0.78400
O2900       O  0.92433068  0.58279822  0.01637911    -0.88600
C2901       C  0.50360066  0.97991898  0.98955742     0.85300
O2902       O  0.98825572  0.56172104  0.02991281    -0.66800
O2903       O  0.54321247  0.90935309  0.01863806    -0.86100
C2904       C  0.00747999  0.56548320  0.02035775     0.86100
C2905       C  0.91794574  0.57554414  0.00532819     1.07700
H2906       H  0.51723504  0.98382601  0.01819381     0.39500
O2907       O  0.99608212  0.97018575  0.01455041    -1.08800
O2908       O  0.93142448  0.92600156  0.01475597    -0.65400
Ni2909     Ni  0.96165036  0.95366601  0.02677100     1.26300
O2910       O  0.99662087  0.54915060  0.01072468    -0.65700
O2911       O  0.99254422  0.90662208  0.03113804    -0.78000
C2912       C  0.96474506  0.99471338  0.04774141     0.85500
O2913       O  0.98666821  0.98016229  0.03971759    -0.65100
Ni2914     Ni  0.51691424  0.92859508  0.00508144     1.27400
Ni2915     Ni  0.96043735  0.00706971  0.00698076     1.26100
H2916       H  0.90867993  0.99531139  0.02018373     0.40000
O2917       O  0.71451626  0.51653432  0.24644746    -0.79900
O2918       O  0.68024536  0.02087932  0.19945909    -0.64600
O2919       O  0.69215514  0.53135350  0.22423752    -1.11200
C2920       C  0.58586767  0.95501846  0.23419826     1.07000
O2921       O  0.63994182  0.97413343  0.19411951    -0.77800
O2922       O  0.59728662  0.52059658  0.20870482    -0.65400
Ni2923     Ni  0.73410463  0.54792046  0.23398442     1.34900
C2924       C  0.59546566  0.54295727  0.21766704     0.85700
O2925       O  0.75370153  0.52687958  0.20776272    -0.78400
O2926       O  0.75346372  0.57652618  0.22095790    -0.88600
C2927       C  0.66523234  0.99934392  0.19142245     0.85300
O2928       O  0.77205895  0.50997441  0.23102011    -0.66800
O2929       O  0.57954326  0.95681886  0.22291319    -0.86100
C2930       C  0.76316168  0.97489736  0.23069110     0.86100
C2931       C  0.76500547  0.56107900  0.21127148     1.07700
H2932       H  0.66583450  0.94365207  0.21983719     0.39500
O2933       O  0.65926057  0.96996271  0.21770121    -1.08800
O2934       O  0.61364168  0.53536566  0.22728307    -0.65400
Ni2935     Ni  0.65423014  0.49869949  0.23201755     1.26300
O2936       O  0.73497648  0.96398312  0.22429359    -0.65700
O2937       O  0.61763039  0.96467144  0.23879638    -0.78000
C2938       C  0.68668994  0.53540736  0.25033252     0.85500
O2939       O  0.65374888  0.52612988  0.24681428    -0.65100
Ni2940     Ni  0.61196216  0.96660512  0.20874126     1.27400
Ni2941     Ni  0.70718650  0.49544801  0.21231336     1.26100
H2942       H  0.68004109  0.55371054  0.22063481     0.40000
C2943       C  0.72915929  0.94444167  0.14751170     0.87500
C2944       C  0.75777558  0.96494393  0.13896013    -0.52800
C2945       C  0.77627817  0.93997188  0.13135062     0.10400
C2946       C  0.76469579  0.89759931  0.13287876     0.21300
C2947       C  0.70195579  0.92116485  0.13906087    -0.53500
C2948       C  0.72107804  0.89672435  0.13149720     0.10500
C2949       C  0.75342170  0.91272810  0.15370437    -0.53000
C2950       C  0.77178274  0.88876023  0.14600258     0.11100
H2951       H  0.76369160  0.49569599  0.13919369     0.15600
H2952       H  0.78007392  0.87746402  0.12675088     0.01300
H2953       H  0.67088443  0.92250507  0.13905985     0.15900
H2954       H  0.75595378  0.90964681  0.16332375     0.15700
O2955       O  0.91065148  0.65562694  0.24616994    -0.79900
O2956       O  0.93807052  0.66451615  0.19808718    -0.64600
O2957       O  0.93084484  0.65362358  0.22306729    -1.11200
C2958       C  0.53628957  0.73052518  0.23214317     1.07000
O2959       O  0.98051342  0.70906704  0.19262081    -0.77800
O2960       O  0.02077835  0.66072068  0.20737069    -0.65400
Ni2961     Ni  0.89062755  0.63092071  0.23256165     1.34900
C2962       C  0.02513331  0.64111982  0.21685374     0.85700
O2963       O  0.86560767  0.66002119  0.20724533    -0.78400
O2964       O  0.87051668  0.60689801  0.21878670    -0.88600
C2965       C  0.95359788  0.68563082  0.19004209     0.85300
O2966       O  0.85304044  0.67075148  0.23151395    -0.66800
O2967       O  0.54271807  0.72465183  0.22101054    -0.86100
C2968       C  0.86098419  0.70626931  0.23112663     0.86100
C2969       C  0.85540554  0.62507008  0.21012727     1.07700
H2970       H  0.95601715  0.74184117  0.21787968     0.39500
O2971       O  0.96199074  0.71510067  0.21611300    -1.08800
O2972       O  0.00955114  0.65199155  0.22657672    -0.65400
Ni2973     Ni  0.96809707  0.68853156  0.23067755     1.26300
O2974       O  0.88698815  0.71899779  0.22410303    -0.65700
O2975       O  0.00375184  0.72465401  0.23680095    -0.78000
C2976       C  0.94361094  0.64182367  0.24740324     0.85500
O2977       O  0.97118935  0.66394308  0.24587872    -0.65100
Ni2978     Ni  0.00926493  0.71552381  0.20704262     1.27400
Ni2979     Ni  0.91325335  0.68965801  0.21141179     1.26100
H2980       H  0.94423431  0.63291142  0.21900531     0.40000
C2981       C  0.88653762  0.74474275  0.14687515     0.87500
C2982       C  0.85742373  0.72368006  0.13863824    -0.52800
C2983       C  0.83804990  0.74820812  0.13109306     0.10400
C2984       C  0.84934855  0.79077233  0.13235987     0.21300
C2985       C  0.91279997  0.76788362  0.13812884    -0.53500
C2986       C  0.89292817  0.79193583  0.13063563     0.10500
C2987       C  0.86253327  0.77638031  0.15314497    -0.53000
C2988       C  0.84316413  0.79986061  0.14552760     0.11100
H2989       H  0.85195143  0.69275929  0.13902359     0.15600
H2990       H  0.83329393  0.81057016  0.12628307     0.01300
H2991       H  0.94386534  0.76672862  0.13787545     0.15900
H2992       H  0.86078543  0.77967644  0.16277139     0.15700
C2993       C  0.90644134  0.67507041  0.89802772     0.87500
C2994       C  0.92747128  0.64550993  0.88985490    -0.52800
C2995       C  0.90332918  0.62634760  0.88222581     0.10400
C2996       C  0.86111474  0.63821697  0.88333864     0.21300
C2997       C  0.88377074  0.70185099  0.88923862    -0.53500
C2998       C  0.86009610  0.68212773  0.88165489     0.10500
C2999       C  0.87458722  0.65107777  0.90418194    -0.53000
C3000       C  0.85143893  0.63184206  0.89644591     0.11100
H3001       H  0.95810797  0.63957381  0.89034544     0.15600
H3002       H  0.84168731  0.62235826  0.87716122     0.01300
H3003       H  0.88467256  0.73317179  0.88912747     0.15900
H3004       H  0.87096681  0.64920714  0.91379180     0.15700
O3005       O  0.48638692  0.69240709  0.99622350    -0.79900
O3006       O  0.98621315  0.72932308  0.94897924    -0.64600
O3007       O  0.99492281  0.71701335  0.97374848    -1.11200
C3008       C  0.91976426  0.82443069  0.98356612     1.07000
O3009       O  0.94205317  0.77206488  0.94338372    -0.77800
O3010       O  0.98846219  0.81170289  0.95887026    -0.65400
Ni3011     Ni  0.51397294  0.67389823  0.98285108     1.34900
C3012       C  0.00859000  0.81364559  0.96829089     0.85700
O3013       O  0.98879876  0.65513046  0.95681497    -0.78400
O3014       O  0.54000981  0.65572370  0.96913590    -0.88600
C3015       C  0.96555428  0.74486026  0.94083997     0.85300
O3016       O  0.97439938  0.63749867  0.98011882    -0.66800
O3017       O  0.92448666  0.83163972  0.97242157    -0.86100
C3018       C  0.93970302  0.64754157  0.98005499     0.86100
C3019       C  0.52317516  0.64381891  0.95976983     1.07700
H3020       H  0.90848896  0.74564131  0.96858061     0.39500
O3021       O  0.93505138  0.75146137  0.96687732    -1.08800
O3022       O  0.99874741  0.79571872  0.97777973    -0.65400
Ni3023     Ni  0.96127252  0.75482700  0.98158389     1.26300
O3024       O  0.92843941  0.67550285  0.97350065    -0.65700
O3025       O  0.92668547  0.79155686  0.98808392    -0.78000
C3026       C  0.50244617  0.72337401  0.99899416     0.85500
O3027       O  0.98513518  0.75430776  0.99691792    -0.65100
Ni3028     Ni  0.93446018  0.79965788  0.95814778     1.27400
Ni3029     Ni  0.95962107  0.70278077  0.96156015     1.26100
H3030       H  0.51660359  0.72998128  0.97016233     0.40000
C3031       C  0.70680384  0.01825599  0.89725698     0.87500
C3032       C  0.68669573  0.54824983  0.88901224    -0.52800
C3033       C  0.71155230  0.56714648  0.88153710     0.10400
C3034       C  0.75354890  0.55475757  0.88293729     0.21300
C3035       C  0.72944464  0.99128336  0.88849640    -0.53500
C3036       C  0.75396638  0.01086266  0.88110303     0.10500
C3037       C  0.73860918  0.54148485  0.90366911    -0.53000
C3038       C  0.76255172  0.56048575  0.89612235     0.11100
H3039       H  0.65605149  0.55432335  0.88923697     0.15600
H3040       H  0.77357593  0.57053626  0.87692213     0.01300
H3041       H  0.72747299  0.96003725  0.88814469     0.15900
H3042       H  0.74166469  0.54294376  0.91330748     0.15700
O3043       O  0.62961639  0.50838291  0.99510901    -0.79900
O3044       O  0.62537467  0.46846069  0.94822566    -0.64600
O3045       O  0.61743704  0.48249062  0.97299901    -1.11200
C3046       C  0.69405790  0.87660820  0.98320876     1.07000
O3047       O  0.67040817  0.92623632  0.94293106    -0.77800
O3048       O  0.62466856  0.88729688  0.95853629    -0.65400
Ni3049     Ni  0.59974459  0.52603080  0.98210768     1.34900
C3050       C  0.60487756  0.88537470  0.96801325     0.85700
O3051       O  0.62136837  0.54327944  0.95573816    -0.78400
O3052       O  0.57170358  0.54310966  0.96870575    -0.88600
C3053       C  0.64616456  0.95252450  0.94020037     0.85300
O3054       O  0.63821335  0.56297037  0.97859638    -0.66800
O3055       O  0.68899563  0.86868191  0.97214093    -0.86100
C3056       C  0.67290346  0.55314471  0.97843191     0.86100
C3057       C  0.58734560  0.55472571  0.95910814     1.07700
H3058       H  0.70410112  0.95479311  0.96771316     0.39500
O3059       O  0.67757370  0.94845984  0.96611341    -1.08800
O3060       O  0.61477797  0.90379662  0.97738838    -0.65400
Ni3061     Ni  0.65160288  0.94552263  0.98089143     1.26300
O3062       O  0.68374802  0.52466690  0.97207308    -0.65700
O3063       O  0.68694991  0.90969260  0.98754072    -0.78000
C3064       C  0.61278780  0.97873595  0.99862738     0.85500
O3065       O  0.62724556  0.94654196  0.99615387    -0.65100
Ni3066     Ni  0.67853842  0.89970126  0.95773737     1.27400
Ni3067     Ni  0.65195996  0.49631797  0.96054545     1.26100
H3068       H  0.59543664  0.96937703  0.96967976     0.40000
O3069       O  0.97963853  0.96680871  0.79516409    -0.79900
O3070       O  0.96272619  0.91926339  0.74201171    -0.64600
O3071       O  0.95943758  0.97200909  0.77168088    -1.11200
C3072       C  0.85348088  0.88277976  0.77861947     1.07000
O3073       O  0.90134496  0.92404191  0.74274341    -0.77800
O3074       O  0.84568921  0.93264702  0.75875865    -0.65400
Ni3075     Ni  0.00714764  0.97303658  0.78047261     1.34900
C3076       C  0.85497657  0.96763290  0.75894638     0.85700
O3077       O  0.99974808  0.97891101  0.75054560    -0.78400
O3078       O  0.53915704  0.98157352  0.76627227    -0.88600
C3079       C  0.93042610  0.90634715  0.73917466     0.85300
O3080       O  0.01936861  0.91848406  0.78020300    -0.66800
O3081       O  0.86503684  0.86641710  0.76908938    -0.86100
C3082       C  0.02231347  0.89794635  0.77085610     0.86100
C3083       C  0.53228539  0.98568601  0.75510765     1.07700
H3084       H  0.93824741  0.88921260  0.76853600     0.39500
O3085       O  0.92568537  0.91143721  0.76499526    -1.08800
O3086       O  0.88346942  0.97861372  0.76521144    -0.65400
Ni3087     Ni  0.91140508  0.94722036  0.77711165     1.26300
O3088       O  0.00431734  0.90711846  0.76130139    -0.65700
O3089       O  0.86474739  0.91710910  0.78184435    -0.78000
C3090       C  0.95352594  0.94260299  0.79785916     0.85500
O3091       O  0.93833511  0.92120892  0.78982699    -0.65100
Ni3092     Ni  0.88299052  0.89398710  0.75567095     1.27400
Ni3093     Ni  0.96327714  0.94458391  0.75715359     1.26100
H3094       H  0.95337974  0.99866251  0.76981029     0.40000
C3095       C  0.88684203  0.99718840  0.84180663     0.87500
C3096       C  0.91321319  0.51925121  0.85077306    -0.52800
C3097       C  0.89343606  0.54294646  0.85840427     0.10400
C3098       C  0.84993433  0.54268900  0.85656304     0.21300
C3099       C  0.85718242  0.97587850  0.84985244    -0.53500
C3100       C  0.83799623  0.00013985  0.85754539     0.10500
C3101       C  0.86332132  0.52988866  0.83573403    -0.53000
C3102       C  0.84415117  0.55311123  0.84346813     0.11100
H3103       H  0.94426738  0.51758103  0.85105962     0.15600
H3104       H  0.83409867  0.56225014  0.86275167     0.01300
H3105       H  0.85132945  0.94506557  0.84926388     0.15900
H3106       H  0.86185357  0.53406572  0.82613399     0.15700
O3107       O  0.63941323  0.73456260  0.79541049    -0.79900
O3108       O  0.65749690  0.78109630  0.74228412    -0.64600
O3109       O  0.65989938  0.72850662  0.77203665    -1.11200
C3110       C  0.76547796  0.81844477  0.77881856     1.07000
O3111       O  0.71867759  0.77417007  0.74327975    -0.77800
O3112       O  0.77398749  0.76728997  0.75956927    -0.65400
Ni3113     Ni  0.61215597  0.72716913  0.78074795     1.34900
C3114       C  0.76462976  0.73235803  0.75965422     0.85700
O3115       O  0.61955770  0.72159629  0.75078602    -0.78400
O3116       O  0.58052622  0.71711112  0.76658490    -0.88600
C3117       C  0.69037918  0.79205507  0.73921990     0.85300
O3118       O  0.59897558  0.78152726  0.78019773    -0.66800
O3119       O  0.75395312  0.83423035  0.76918140    -0.86100
C3120       C  0.59693486  0.80247061  0.77089692     0.86100
C3121       C  0.58744936  0.71323944  0.75542275     1.07700
H3122       H  0.68132675  0.81124624  0.76870625     0.39500
O3123       O  0.69379509  0.78882698  0.76527770    -1.08800
O3124       O  0.73590944  0.72147633  0.76581707    -0.65400
Ni3125     Ni  0.70790376  0.75346708  0.77753131     1.26300
O3126       O  0.61544802  0.79351400  0.76143325    -0.65700
O3127       O  0.75445948  0.78410135  0.78219456    -0.78000
C3128       C  0.66539114  0.75885475  0.79815416     0.85500
O3129       O  0.68098253  0.78000282  0.79012747    -0.65100
Ni3130     Ni  0.73663434  0.80549513  0.75595086     1.27400
Ni3131     Ni  0.65625214  0.75577718  0.75743785     1.26100
H3132       H  0.66606763  0.70186943  0.77020137     0.40000
C3133       C  0.72996063  0.69882469  0.84161085     0.87500
C3134       C  0.70300830  0.67529115  0.85010270    -0.52800
C3135       C  0.72238518  0.65079643  0.85761844     0.10400
C3136       C  0.76594504  0.65198373  0.85619808     0.21300
C3137       C  0.75852657  0.71937005  0.85016706    -0.53500
C3138       C  0.77721757  0.69436940  0.85774382     0.10500
C3139       C  0.75446420  0.66727534  0.83538788    -0.53000
C3140       C  0.77315658  0.64329619  0.84308387     0.11100
H3141       H  0.67193657  0.67667246  0.85020269     0.15600
H3142       H  0.78147378  0.63190577  0.86232409     0.01300
H3143       H  0.76412482  0.75028680  0.84998004     0.15900
H3144       H  0.75692494  0.66438788  0.82576648     0.15700
C3145       C  0.97976886  0.69723354  0.64828955     0.87500
C3146       C  0.00882828  0.71785069  0.63988688    -0.52800
C3147       C  0.02696473  0.69310120  0.63211920     0.10400
C3148       C  0.01463789  0.65090511  0.63332590     0.21300
C3149       C  0.95223703  0.67508122  0.63965342    -0.53500
C3150       C  0.97104338  0.65085569  0.63193844     0.10500
C3151       C  0.00353973  0.66460711  0.65424467    -0.53000
C3152       C  0.02164541  0.64093927  0.64636554     0.11100
H3153       H  0.01529234  0.74855685  0.64035631     0.15600
H3154       H  0.02970741  0.63099974  0.62705248     0.01300
H3155       H  0.92117783  0.67683204  0.63969162     0.15900
H3156       H  0.00616899  0.66090405  0.66383704     0.15700
O3157       O  0.96359181  0.78569096  0.74810487    -0.79900
O3158       O  0.93146447  0.77950930  0.69989309    -0.64600
O3159       O  0.94099952  0.78909839  0.72505521    -1.11200
C3160       C  0.83677172  0.71113321  0.73447343     1.07000
O3161       O  0.88923721  0.73467528  0.69461163    -0.77800
O3162       O  0.85034108  0.78258802  0.70994988    -0.65400
Ni3163     Ni  0.48222244  0.81108127  0.73434760     1.34900
C3164       C  0.84626809  0.80174679  0.71952731     0.85700
O3165       O  0.50428826  0.78356446  0.70852121    -0.78400
O3166       O  0.50124619  0.83579563  0.72049476    -0.88600
C3167       C  0.91589412  0.75825149  0.69189309     0.85300
O3168       O  0.51923645  0.77107918  0.73266231    -0.66800
O3169       O  0.82935854  0.71789230  0.72344200    -0.86100
C3170       C  0.51125117  0.73563951  0.73186609     0.86100
C3171       C  0.51477670  0.81828060  0.71145727     1.07700
H3172       H  0.91554786  0.70126686  0.71954208     0.39500
O3173       O  0.90928498  0.72807888  0.71797423    -1.08800
O3174       O  0.86243222  0.79046231  0.72916409    -0.65400
Ni3175     Ni  0.90450589  0.75357980  0.73276027     1.26300
O3176       O  0.48440445  0.72368008  0.72509844    -0.65700
O3177       O  0.86961583  0.71685263  0.73892374    -0.78000
C3178       C  0.93054916  0.79887216  0.74972556     0.85500
O3179       O  0.90314194  0.77648550  0.74825889    -0.65100
Ni3180     Ni  0.86156238  0.72777154  0.70925403     1.27400
Ni3181     Ni  0.95726065  0.75384951  0.71294632     1.26100
H3182       H  0.92725492  0.81007717  0.72124553     0.40000
O3183       O  0.65675349  0.91183336  0.74707608    -0.79900
O3184       O  0.68960336  0.92038522  0.69926433    -0.64600
O3185       O  0.67978014  0.91062738  0.72413495    -1.11200
C3186       C  0.78227049  0.99026992  0.73393391     1.07000
O3187       O  0.73135226  0.96552203  0.69381797    -0.77800
O3188       O  0.77118734  0.91886657  0.70942137    -0.65400
Ni3189     Ni  0.63915323  0.88679590  0.73319801     1.34900
C3190       C  0.77479296  0.89970368  0.71903732     0.85700
O3191       O  0.61619274  0.91513353  0.70763701    -0.78400
O3192       O  0.62149268  0.86217644  0.71920514    -0.88600
C3193       C  0.70497070  0.94146289  0.69119693     0.85300
O3194       O  0.60106539  0.92601368  0.73160190    -0.66800
O3195       O  0.78994960  0.98413016  0.72288490    -0.86100
C3196       C  0.60833305  0.96170899  0.73107720     0.86100
C3197       C  0.60645680  0.88007847  0.71048956     1.07700
H3198       H  0.70358375  0.99909720  0.71875209     0.39500
O3199       O  0.71033312  0.97240217  0.71719912    -1.08800
O3200       O  0.75793113  0.91079683  0.72854742    -0.65400
Ni3201     Ni  0.71523895  0.94680259  0.73198324     1.26300
O3202       O  0.63478185  0.97479322  0.72432793    -0.65700
O3203       O  0.74936716  0.98404559  0.73829363    -0.78000
C3204       C  0.69027261  0.89973618  0.74857909     0.85500
O3205       O  0.71674203  0.92339833  0.74739936    -0.65100
Ni3206     Ni  0.75841678  0.97342282  0.70858486     1.27400
Ni3207     Ni  0.66281335  0.94567536  0.71212038     1.26100
H3208       H  0.69419608  0.89021421  0.72027350     0.40000
C3209       C  0.63707685  0.99633485  0.64749372     0.87500
C3210       C  0.60723631  0.97520653  0.63945485    -0.52800
C3211       C  0.58796767  0.99966900  0.63181159     0.10400
C3212       C  0.59998245  0.54201249  0.63281971     0.21300
C3213       C  0.66331470  0.51862556  0.63854627    -0.53500
C3214       C  0.64342578  0.54235489  0.63094531     0.10500
C3215       C  0.61353424  0.52887245  0.65363846    -0.53000
C3216       C  0.59419864  0.55209013  0.64591175     0.11100
H3217       H  0.60119679  0.94443531  0.64006094     0.15600
H3218       H  0.58406259  0.56165844  0.62665928     0.01300
H3219       H  0.69436721  0.51708461  0.63823016     0.15900
H3220       H  0.61186297  0.53271873  0.66324504     0.15700
O3221       O  0.68593138  0.76981400  0.54537363    -0.79900
O3222       O  0.72844620  0.75354069  0.49196486    -0.64600
O3223       O  0.67939785  0.74942336  0.52212903    -1.11200
C3224       C  0.76878032  0.64245779  0.52897786     1.07000
O3225       O  0.73008364  0.69166083  0.49275578    -0.77800
O3226       O  0.71999306  0.63597635  0.50869326    -0.65400
Ni3227     Ni  0.67911739  0.79768240  0.53073961     1.34900
C3228       C  0.68502930  0.64480703  0.50928253     0.85700
O3229       O  0.66921529  0.78930698  0.50106899    -0.78400
O3230       O  0.66996508  0.83006503  0.51649472    -0.88600
C3231       C  0.74545746  0.72261993  0.48960311     0.85300
O3232       O  0.73346065  0.80835825  0.53019317    -0.66800
O3233       O  0.78532123  0.65469550  0.51957689    -0.86100
C3234       C  0.75319638  0.81141783  0.52073158     0.86100
C3235       C  0.66374286  0.82257887  0.50545233     1.07700
H3236       H  0.76127570  0.72923720  0.51858305     0.39500
O3237       O  0.73958583  0.71599913  0.51510812    -1.08800
O3238       O  0.67375299  0.67295509  0.51575135    -0.65400
Ni3239     Ni  0.70493345  0.70119662  0.52745090     1.26300
O3240       O  0.74230665  0.79500739  0.51107490    -0.65700
O3241       O  0.73473159  0.65399663  0.53215856    -0.78000
C3242       C  0.71036467  0.74363620  0.54804668     0.85500
O3243       O  0.73139695  0.72824463  0.53997421    -0.65100
Ni3244     Ni  0.75871888  0.67322462  0.50595157     1.27400
Ni3245     Ni  0.70505161  0.75336110  0.50737729     1.26100
H3246       H  0.65281975  0.74328950  0.52055056     0.40000
C3247       C  0.65547605  0.67547586  0.59153938     0.87500
C3248       C  0.63358360  0.70166157  0.60067920    -0.52800
C3249       C  0.60993369  0.68150960  0.60816084     0.10400
C3250       C  0.61041478  0.63781888  0.60610465     0.21300
C3251       C  0.67663754  0.64514368  0.59943174    -0.53500
C3252       C  0.65258985  0.62555058  0.60699981     0.10500
C3253       C  0.62329340  0.65230424  0.58531731    -0.53000
C3254       C  0.60016101  0.63279824  0.59298896     0.11100
H3255       H  0.63558292  0.73285910  0.60128701     0.15600
H3256       H  0.59105180  0.62161399  0.61222371     0.01300
H3257       H  0.70727631  0.63927953  0.59888721     0.15900
H3258       H  0.61932642  0.65136897  0.57570557     0.15700
O3259       O  0.91641113  0.92484475  0.54708230    -0.79900
O3260       O  0.87579814  0.93984018  0.49349338    -0.64600
O3261       O  0.92351121  0.94583606  0.52385224    -1.11200
C3262       C  0.83196135  0.55166881  0.52983402     1.07000
O3263       O  0.86968312  0.50128516  0.49369408    -0.77800
O3264       O  0.88118944  0.55741606  0.50931883    -0.65400
Ni3265     Ni  0.92435251  0.89732239  0.53247393     1.34900
C3266       C  0.91631750  0.54916974  0.51025665     0.85700
O3267       O  0.93517696  0.90580903  0.50284718    -0.78400
O3268       O  0.93514599  0.86523181  0.51833516    -0.88600
C3269       C  0.85554171  0.96886780  0.49151408     0.85300
O3270       O  0.87028712  0.88451841  0.53155422    -0.66800
O3271       O  0.81579000  0.53829969  0.52056796    -0.86100
C3272       C  0.85121068  0.88166179  0.52192112     0.86100
C3273       C  0.94115108  0.87267311  0.50728493     1.07700
H3274       H  0.84180646  0.46433053  0.52007223     0.39500
O3275       O  0.86304247  0.47804075  0.51649710    -1.08800
O3276       O  0.92777227  0.52195409  0.51705540    -0.65400
Ni3277     Ni  0.89713521  0.49406947  0.52887273     1.26300
O3278       O  0.86208728  0.89923428  0.51249410    -0.65700
O3279       O  0.86621695  0.54110745  0.53316813    -0.78000
C3280       C  0.89293547  0.45180200  0.54972759     0.85500
O3281       O  0.87161085  0.46735833  0.54170898    -0.65100
Ni3282     Ni  0.84231474  0.51978352  0.50703829     1.27400
Ni3283     Ni  0.89860024  0.94123269  0.50897761     1.26100
H3284       H  0.95006184  0.95236523  0.52236338     0.40000
C3285       C  0.95584078  0.51909323  0.59236715     0.87500
C3286       C  0.97922827  0.99233968  0.60099298    -0.52800
C3287       C  0.50349309  0.01206665  0.60840089     0.10400
C3288       C  0.50228131  0.55594214  0.60670771     0.21300
C3289       C  0.93537786  0.54835053  0.60076286    -0.53500
C3290       C  0.96006642  0.56750176  0.60821637     0.10500
C3291       C  0.48692897  0.54325224  0.58596567    -0.53000
C3292       C  0.51075260  0.56239537  0.59350086     0.11100
H3293       H  0.47782240  0.96106246  0.60130197     0.15600
H3294       H  0.52217761  0.57185502  0.61272128     0.01300
H3295       H  0.90464091  0.55393065  0.60060174     0.15900
H3296       H  0.48963249  0.54519623  0.57632524     0.15700
C3297       C  0.41193003  0.44368435  0.57105187    -0.12400
C3298       C  0.89603600  0.46750159  0.56210066     0.09800
C3299       C  0.89290248  0.50738359  0.56439912    -0.12400
C3300       C  0.90927056  0.52332898  0.57478278    -0.12400
C3301       C  0.92937182  0.49989026  0.58308291     0.09800
C3302       C  0.42830953  0.45948921  0.58135410    -0.12400
H3303       H  0.41452483  0.41273157  0.56964107     0.13800
H3304       H  0.88105884  0.52666831  0.55770955     0.13800
H3305       H  0.90900847  0.55451351  0.57584819     0.13800
H3306       H  0.44218183  0.43961898  0.58740179     0.13800
C3307       C  0.54146311  0.58724066  0.58972577    -0.12300
C3308       C  0.56853637  0.60875569  0.58949993    -0.13900
C3309       C  0.78830630  0.83552439  0.52092940    -0.12300
C3310       C  0.81672925  0.85668923  0.52144909    -0.13900
C3311       C  0.81079244  0.58329538  0.53538319    -0.12300
C3312       C  0.78916084  0.61118520  0.53502945    -0.13900
C3313       C  0.69257039  0.75177822  0.56941109    -0.12400
C3314       C  0.70896067  0.72839173  0.56048477     0.09800
C3315       C  0.71513240  0.68898317  0.56302712    -0.12400
C3316       C  0.70106337  0.67275087  0.57369611    -0.12400
C3317       C  0.68058297  0.69549659  0.58206769     0.09800
C3318       C  0.67865519  0.73573961  0.58001107    -0.12400
H3319       H  0.68766217  0.78235775  0.56779625     0.13800
H3320       H  0.72758807  0.67005398  0.55636194     0.13800
H3321       H  0.70334727  0.64171181  0.57495146     0.13800
H3322       H  0.66381896  0.75509830  0.58597820     0.13800
C3323       C  0.66335831  0.59434910  0.61501527    -0.12300
C3324       C  0.66029643  0.56868778  0.62232965    -0.13900
C3325       C  0.53043139  0.99446106  0.61677018    -0.12300
C3326       C  0.55636243  0.98986014  0.62389342    -0.13900
C3327       C  0.71292900  0.45592413  0.66942127    -0.12400
C3328       C  0.68942948  0.94280892  0.67879178     0.09800
C3329       C  0.64978009  0.93954722  0.67667794    -0.12400
C3330       C  0.63363024  0.95338014  0.66597844    -0.12400
C3331       C  0.65661491  0.97093374  0.65710653     0.09800
C3332       C  0.69686977  0.46939281  0.65869404    -0.12400
H3333       H  0.74372241  0.45823429  0.67068406     0.13800
H3334       H  0.63079728  0.92968601  0.68369383     0.13800
H3335       H  0.60262718  0.95350536  0.66507624     0.13800
H3336       H  0.71639045  0.48083095  0.65212719     0.13800
C3337       C  0.82135070  0.83656625  0.71955036    -0.12300
C3338       C  0.79982760  0.86498596  0.71933765    -0.13900
C3339       C  0.54611504  0.83860512  0.70556491    -0.12300
C3340       C  0.57398973  0.85995678  0.70517907    -0.13900
C3341       C  0.94977219  0.59807537  0.61649910    -0.12300
C3342       C  0.95316398  0.62392281  0.62372097    -0.13900
C3343       C  0.55796790  0.70271637  0.62398129    -0.12300
C3344       C  0.58356643  0.69859019  0.61674502    -0.13900
C3345       C  0.56890614  0.58291322  0.64942476    -0.12300
C3346       C  0.54667244  0.60959274  0.64961431    -0.13900
C3347       C  0.92173958  0.72646888  0.65975390    -0.12400
C3348       C  0.96176967  0.72339311  0.65797991     0.09800
C3349       C  0.98588036  0.74099787  0.66656013    -0.12400
C3350       C  0.97081030  0.75682294  0.67716375    -0.12400
C3351       C  0.93113178  0.75560686  0.67945350     0.09800
C3352       C  0.90679243  0.74211692  0.67033100    -0.12400
H3353       H  0.90145412  0.71479394  0.65346294     0.13800
H3354       H  0.51680753  0.73963892  0.66549869     0.13800
H3355       H  0.49047731  0.76667092  0.68399525     0.13800
H3356       H  0.87600117  0.74101616  0.67175293     0.13800
C3357       C  0.78464856  0.70800313  0.75119559    -0.12300
C3358       C  0.80629168  0.70261850  0.74285833    -0.13900
C3359       C  0.55662925  0.70434203  0.74727082    -0.12300
C3360       C  0.53322668  0.71039002  0.73949587    -0.13900
C3361       C  0.69527212  0.83203391  0.73912052    -0.12300
C3362       C  0.69713257  0.86287049  0.74376021    -0.13900
C3363       C  0.71944680  0.76069757  0.81322320    -0.12400
C3364       C  0.68009665  0.75697515  0.81066071     0.09800
C3365       C  0.65601806  0.74190511  0.81961147    -0.12400
C3366       C  0.67118854  0.72662494  0.83020413    -0.12400
C3367       C  0.71121819  0.72543877  0.83215158     0.09800
C3368       C  0.73477753  0.74514664  0.82384760    -0.12400
H3369       H  0.73888918  0.77217383  0.80656989     0.13800
H3370       H  0.62542922  0.73909094  0.81801313     0.13800
H3371       H  0.65120479  0.71343191  0.83630130     0.13800
H3372       H  0.76565242  0.74551579  0.82509308     0.13800
C3373       C  0.81988170  0.58486893  0.83992314    -0.12300
C3374       C  0.79826959  0.61212473  0.83966151    -0.13900
C3375       C  0.92709159  0.86638277  0.74014244    -0.12300
C3376       C  0.92517040  0.83614825  0.74513186    -0.13900
C3377       C  0.83454966  0.99235094  0.75065238    -0.12300
C3378       C  0.81264552  0.99837082  0.74240984    -0.13900
C3379       C  0.56334311  0.99265191  0.74686603    -0.12300
C3380       C  0.58627201  0.98595880  0.73900124    -0.13900
C3381       C  0.82302387  0.86193643  0.78470406    -0.12300
C3382       C  0.79578601  0.83983263  0.78478660    -0.13900
C3383       C  0.54848017  0.86410100  0.77091654    -0.12300
C3384       C  0.57124437  0.83668643  0.77092068    -0.13900
C3385       C  0.89842218  0.94184896  0.81240234    -0.12400
C3386       C  0.93806115  0.94451014  0.81025053     0.09800
C3387       C  0.96186965  0.95739372  0.81958741    -0.12400
C3388       C  0.94623378  0.97057984  0.83039495    -0.12400
C3389       C  0.90605094  0.97210002  0.83209405     0.09800
C3390       C  0.88270109  0.95519436  0.82320246    -0.12400
H3391       H  0.87918181  0.93257720  0.80538495     0.13800
H3392       H  0.99262416  0.45961711  0.81825829     0.12200
H3393       H  0.96593544  0.48192924  0.83692743     0.13800
H3394       H  0.85172265  0.95552964  0.82417890     0.13800
C3395       C  0.80685286  0.98972125  0.86557492    -0.12300
C3396       C  0.78092031  0.99340475  0.87273918    -0.13900
C3397       C  0.70510042  0.62345455  0.86587875    -0.12300
C3398       C  0.70163924  0.59774957  0.87317805    -0.13900
C3399       C  0.67859220  0.45897702  0.90830630    -0.12400
C3400       C  0.68021642  0.99943232  0.90657378     0.09800
C3401       C  0.66103330  0.02320878  0.91496666    -0.12400
C3402       C  0.64515564  0.00753927  0.92544703    -0.12400
C3403       C  0.64809867  0.96766895  0.92777640     0.09800
C3404       C  0.66292684  0.44342476  0.91876122    -0.12400
H3405       H  0.69171095  0.43895575  0.90215727     0.13800
H3406       H  0.66128055  0.05440057  0.91390416     0.13800
H3407       H  0.63408379  0.02702644  0.93219125     0.13800
H3408       H  0.66530824  0.41247349  0.92022962     0.13800
C3409       C  0.54299555  0.83838056  0.96835211    -0.12300
C3410       C  0.57080703  0.86019573  0.96827308    -0.13900
C3411       C  0.54378907  0.61310043  0.95354287    -0.12300
C3412       C  0.56597756  0.58563364  0.95323071    -0.13900
C3413       C  0.91050735  0.56930330  0.86696614    -0.12300
C3414       C  0.91387336  0.59510002  0.87420986    -0.13900
C3415       C  0.80755760  0.70407072  0.86609732    -0.12300
C3416       C  0.83310799  0.69972427  0.87334121    -0.13900
C3417       C  0.79370323  0.58487008  0.89981960    -0.12300
C3418       C  0.82053958  0.60671801  0.89989820    -0.13900
C3419       C  0.94968250  0.67127881  0.91637120    -0.12400
C3420       C  0.93234304  0.69444732  0.90745476     0.09800
C3421       C  0.93587834  0.73499730  0.90858119    -0.12400
C3422       C  0.95072978  0.75149725  0.91904310    -0.12400
C3423       C  0.96327938  0.72813332  0.92857902     0.09800
C3424       C  0.96484630  0.68786487  0.92680987    -0.12400
H3425       H  0.94850273  0.63999713  0.91572022     0.13800
H3426       H  0.92520162  0.75455444  0.90184621     0.13800
H3427       H  0.94988821  0.78271560  0.92001329     0.13800
H3428       H  0.97444973  0.66891858  0.93390940     0.13800
C3429       C  0.89855811  0.68458655  0.17540938    -0.12400
C3430       C  0.93810807  0.68794418  0.17766663     0.09800
C3431       C  0.96172948  0.70274174  0.16855948    -0.12400
C3432       C  0.94597261  0.71785635  0.15804366    -0.12400
C3433       C  0.90585339  0.71884155  0.15632022     0.09800
C3434       C  0.88267679  0.69974252  0.16484183    -0.12400
H3435       H  0.87947092  0.67354579  0.18223185     0.13800
H3436       H  0.99243681  0.70536200  0.16995584     0.13800
H3437       H  0.96560525  0.73088835  0.15180437     0.13800
H3438       H  0.85172052  0.69953383  0.16378902     0.13800
C3439       C  0.79642160  0.85752671  0.14949553    -0.12300
C3440       C  0.81822579  0.83058766  0.14924699    -0.13900
C3441       C  0.54972190  0.60628512  0.21680206    -0.12300
C3442       C  0.57091284  0.57775412  0.21707407    -0.13900
C3443       C  0.79520268  0.58302385  0.20524913    -0.12300
C3444       C  0.82263924  0.60508440  0.20484782    -0.13900
C3445       C  0.73457055  0.98856673  0.16564770    -0.12400
C3446       C  0.71076568  0.97072015  0.15704103     0.09800
C3447       C  0.67071973  0.97255464  0.15887554    -0.12400
C3448       C  0.65564217  0.98591122  0.16971040    -0.12400
C3449       C  0.67990037  0.99877629  0.17892041     0.09800
C3450       C  0.71935860  0.00223071  0.17649405    -0.12400
H3451       H  0.76548867  0.98843972  0.16447875     0.13800
H3452       H  0.65069578  0.46109015  0.15247631     0.13800
H3453       H  0.62502771  0.48337115  0.17122395     0.13800
H3454       H  0.73890521  0.01196589  0.18337388     0.13800
C3455       C  0.57299383  0.98084441  0.99733514    -0.12300
C3456       C  0.54213154  0.98315776  0.99288228    -0.13900
C3457       C  0.91818342  0.87794922  0.99995754    -0.12300
C3458       C  0.91181774  0.85540721  0.99190909    -0.13900
C3459       C  0.90974684  0.60643917  0.99695351    -0.12300
C3460       C  0.91543240  0.62810099  0.98860907    -0.13900
C3461       C  0.83225391  0.94681011  0.11572110    -0.12300
C3462       C  0.80662764  0.94993785  0.12300150    -0.13900
C3463       C  0.91464228  0.84490990  0.11512739    -0.12300
C3464       C  0.91025404  0.81908567  0.12232828    -0.13900
C3465       C  0.93130203  0.98432002  0.07965619    -0.12400
C3466       C  0.93093369  0.94379610  0.08127208     0.09800
C3467       C  0.95014507  0.92107775  0.07259540    -0.12400
C3468       C  0.96512589  0.93783343  0.06209296    -0.12400
C3469       C  0.96146130  0.97785982  0.06000920     0.09800
C3470       C  0.94599700  0.00088931  0.06919503    -0.12400
H3471       H  0.91807066  0.50365179  0.08595293     0.13800
H3472       H  0.95094157  0.88984781  0.07352278     0.13800
H3473       H  0.97660302  0.91907758  0.05521726     0.13800
H3474       H  0.94270310  0.53179535  0.06793109     0.13800
C3475       C  0.54208007  0.59006012  0.02028824    -0.12300
C3476       C  0.57069928  0.61085998  0.02014441    -0.13900
C3477       C  0.56927975  0.83597062  0.03356972    -0.12300
C3478       C  0.54773358  0.86405333  0.03354270    -0.13900
C3479       C  0.57158825  0.72235445  0.99138498    -0.12300
C3480       C  0.54139164  0.72404799  0.99622690    -0.13900
C3481       C  0.70302653  0.59378076  0.99534556    -0.12300
C3482       C  0.69738585  0.57258824  0.98690456    -0.13900
C3483       C  0.70252524  0.84607132  0.99167496    -0.12300
C3484       C  0.69677386  0.82328387  0.99972231    -0.13900
C3485       C  0.69970072  0.84409211  0.11594235    -0.12300
C3486       C  0.70338968  0.86965249  0.12325967    -0.13900
C3487       C  0.80711973  0.73768664  0.12304673    -0.12300
C3488       C  0.78109415  0.74111799  0.11592810    -0.13900
C3489       C  0.79345249  0.83366631  0.08963493    -0.12300
C3490       C  0.82082127  0.85473227  0.08940386    -0.13900
C3491       C  0.68331728  0.70724877  0.07934100    -0.12400
C3492       C  0.68231818  0.74738129  0.08164589     0.09800
C3493       C  0.66341588  0.77127801  0.07320213    -0.12400
C3494       C  0.65022276  0.75629930  0.06226172    -0.12400
C3495       C  0.65497809  0.71684815  0.05955468     0.09800
C3496       C  0.67021857  0.69240225  0.06845233    -0.12400
H3497       H  0.69655027  0.68703948  0.08542118     0.13800
H3498       H  0.66191300  0.80227715  0.07463047     0.13800
H3499       H  0.63911203  0.77608929  0.05559042     0.13800
H3500       H  0.67421223  0.66178280  0.06670422     0.13800
C3501       C  0.94870767  0.59339721  0.49469234    -0.12300
C3502       C  0.94178616  0.57065645  0.50262038    -0.13900
C3503       C  0.94272783  0.81985536  0.49067863    -0.12300
C3504       C  0.94890209  0.84177663  0.49890699    -0.13900
C3505       C  0.81525562  0.72186171  0.49635050    -0.12300
C3506       C  0.78497176  0.72342095  0.49151181    -0.13900
C3507       C  0.91905209  0.69149068  0.42123911    -0.12400
C3508       C  0.90361825  0.71596347  0.43010698     0.09800
C3509       C  0.90036913  0.75564373  0.42749702    -0.12400
C3510       C  0.91565788  0.77080401  0.41684406    -0.12400
C3511       C  0.93516885  0.74690944  0.40855747     0.09800
C3512       C  0.93446307  0.70659751  0.41062679    -0.12400
H3513       H  0.42167214  0.66065323  0.42287927     0.13800
H3514       H  0.88899425  0.77545823  0.43410338     0.13800
H3515       H  0.91513765  0.80189814  0.41554383     0.13800
H3516       H  0.44790555  0.68645066  0.40457046     0.13800
C3517       C  0.57232028  0.85735254  0.40104257    -0.12300
C3518       C  0.54588144  0.83511659  0.40110871    -0.13900
C3519       C  0.78593376  0.96680482  0.49920900    -0.12300
C3520       C  0.81694732  0.96527074  0.49481544    -0.13900
C3521       C  0.66245564  0.87499639  0.48868996    -0.12300
C3522       C  0.65624520  0.85340879  0.49700951    -0.13900
C3523       C  0.65480503  0.60068697  0.49333357    -0.12300
C3524       C  0.66016058  0.62336669  0.50141445    -0.13900
C3525       C  0.79013376  0.58597434  0.47013844    -0.12300
C3526       C  0.81861779  0.60713705  0.47009432    -0.13900
C3527       C  0.81735524  0.83513604  0.45504664    -0.12300
C3528       C  0.79487546  0.86251385  0.45502285    -0.13900
C3529       C  0.71571665  0.93940331  0.42743259    -0.12400
C3530       C  0.71244123  0.97937178  0.42955323     0.09800
C3531       C  0.69873487  0.00303627  0.42023635    -0.12400
C3532       C  0.68447688  0.98687943  0.40964877    -0.12400
C3533       C  0.68278714  0.94632433  0.40814074     0.09800
C3534       C  0.70119719  0.92313382  0.41685269    -0.12400
H3535       H  0.72611392  0.92026269  0.43437795     0.13800
H3536       H  0.69640478  0.03408048  0.42148979     0.13800
H3537       H  0.67263768  0.00660344  0.40315403     0.13800
H3538       H  0.70121348  0.89189313  0.41595876     0.13800
C3539       C  0.78375912  0.95015232  0.23896486    -0.12300
C3540       C  0.80629157  0.94466722  0.24709215    -0.13900
C3541       C  0.53355808  0.95230372  0.25100163    -0.12300
C3542       C  0.55510215  0.94677241  0.24260093    -0.13900
C3543       C  0.94386500  0.57331932  0.23839438    -0.12300
C3544       C  0.94790564  0.60444084  0.24270289    -0.13900
C3545       C  0.55735402  0.95460296  0.36689622    -0.12300
C3546       C  0.58260580  0.95106875  0.37427092    -0.13900
C3547       C  0.95641935  0.87218083  0.36786535    -0.12300
C3548       C  0.95367822  0.84583107  0.37500373    -0.13900
C3549       C  0.98303118  0.98959750  0.32444833    -0.12400
C3550       C  0.95973261  0.97055834  0.33297360     0.09800
C3551       C  0.91983039  0.96981329  0.33081736    -0.12400
C3552       C  0.90459116  0.98332838  0.31999130    -0.12400
C3553       C  0.92843753  0.99857194  0.31098880     0.09800
C3554       C  0.96765008  0.00331394  0.31359522    -0.12400
H3555       H  0.51385437  0.99091362  0.32575603     0.13800
H3556       H  0.90015895  0.95637385  0.33696814     0.13800
H3557       H  0.87417430  0.97935801  0.31833155     0.13800
H3558       H  0.48700045  0.01451418  0.30687096     0.13800
C3559       C  0.79950902  0.60728972  0.27165512    -0.12300
C3560       C  0.82059974  0.57855370  0.27142436    -0.13900
C3561       C  0.54443483  0.58514744  0.28403171    -0.12300
C3562       C  0.57213604  0.60684973  0.28360290    -0.13900
C3563       C  0.69388815  0.57501475  0.25081173    -0.12300
C3564       C  0.69933488  0.60544338  0.24616017    -0.13900
C3565       C  0.81800497  0.73711735  0.24767762    -0.12300
C3566       C  0.84021604  0.73042920  0.23954010    -0.13900
C3567       C  0.59007647  0.73195224  0.24841609    -0.12300
C3568       C  0.56757813  0.73812595  0.24033985    -0.13900
C3569       C  0.53572240  0.74186746  0.37451328    -0.12300
C3570       C  0.56105436  0.73801633  0.36712983    -0.13900
C3571       C  0.66088189  0.82148038  0.36718885    -0.12300
C3572       C  0.66354503  0.84754032  0.37443794    -0.13900
C3573       C  0.56867495  0.83222946  0.34097268    -0.12300
C3574       C  0.54710093  0.85939422  0.34111348    -0.13900
C3575       C  0.63376253  0.70142714  0.32428593    -0.12400
C3576       C  0.65711563  0.72160976  0.33255395     0.09800
C3577       C  0.69696479  0.72223559  0.33027463    -0.12400
C3578       C  0.71207478  0.70716323  0.31962854    -0.12400
C3579       C  0.68813157  0.69093872  0.31081452     0.09800
C3580       C  0.64900060  0.68630975  0.31356950    -0.12400
H3581       H  0.60300118  0.69999314  0.32569739     0.13800
H3582       H  0.71673539  0.73648864  0.33620907     0.13800
H3583       H  0.74249662  0.71085782  0.31790834     0.13800
H3584       H  0.62959132  0.67410455  0.30703247     0.13800
loop_ 
_geom_bond_atom_site_label_1 
_geom_bond_atom_site_label_2 
_geom_bond_distance 
_geom_bond_site_symmetry_2 
_ccdc_geom_bond_type 
C1            C2   1.569       .  S
C1            C7   1.542       .  S
C1            C5   1.559       .  S
C1          C888   1.550       .  S
C2            H9   1.082       .  S
C2            C3   1.373       .  D
C3            C4   1.523       .  S
C3          C883   1.459       .  S
C4            C8   1.521       .  S
C4            C6   1.525       .  S
C4           H10   1.113       .  S
C5           H11   1.085       .  S
C5            C6   1.375       .  D
C6          C882   1.456       .  S
C7           H12   1.087       .  S
C7            C8   1.356       .  D
C8          C885   1.430       .  S
O13         Ni19   1.916       .  S
O13          C34   1.274       .  A
O14         Ni37   1.905       .  S
O14          C23   1.238       .  A
O15         Ni19   1.936       .  S
O15         Ni37   1.881       .  S
O15         Ni31   1.985       .  S
O15          H38   0.966       .  S
C16          O33   1.298       .  A
C16          O25   1.270       .  A
C16         C874   1.462       .  S
O17         Ni36   1.886       .  S
O17          C23   1.247       .  A
O18         Ni36   1.892       .  S
O18          C20   1.258       .  A
Ni19         O22   1.980       .  S
Ni19         O24   1.936       .  S
C20          O30   1.278       .  A
C20         C879   1.446       .  S
O21         Ni37   1.893       .  S
O21          C27   1.262       .  A
O22          C27   1.284       .  A
C23         C876   1.403       .  S
O24          C26   1.270       .  A
O25         Ni36   1.892       .  S
C26          O32   1.274       .  A
C26         C871   1.478       .  S
C27         C877   1.453       .  S
H28          O29   0.966       .  S
O29         Ni37   1.974       .  S
O29         Ni31   1.905       .  S
O29         Ni36   1.936       .  S
O30         Ni31   1.968       .  S
Ni31         O35   1.939       .  S
Ni31         O33   2.002       .  S
O32         Ni37   1.967       .  S
C34          O35   1.284       .  A
C34         C891   1.500       .  S
C39          C40   1.567       .  S
C39          C45   1.542       .  S
C39          C43   1.555       .  S
C39         C862   1.544       .  S
C40          H47   1.082       .  S
C40          C41   1.371       .  D
C41          C42   1.525       .  S
C41         C859   1.456       .  S
C42          C46   1.522       .  S
C42          C44   1.527       .  S
C42          H48   1.113       .  S
C43         H945   1.086       .  S
C43          C44   1.372       .  D
C44        C2649   1.450       .  S
C45          H50   1.087       .  S
C45          C46   1.354       .  D
C46        C2678   1.430       .  S
H49         C939   1.086       .  S
O51         Ni57   1.920       .  S
O51          C72   1.274       .  A
O52         Ni75   1.911   1_545  S
O52          C61   1.254       .  A
O53         Ni57   1.931       .  S
O53        Ni971   1.895       .  S
O53        Ni965   1.986       .  S
O53          H76   0.966       .  S
C54          O71   1.307       .  A
C54          O63   1.273       .  A
C54         C873   1.459       .  S
O55       Ni1866   1.894       .  S
O55          C61   1.243       .  A
O56         Ni74   1.890   1_455  S
O56         C954   1.250   1_545  A
Ni57         O60   1.970       .  S
Ni57        O958   1.932       .  S
C58          O68   1.274   1_455  A
C58         O952   1.250       .  A
C58         C853   1.452       .  S
O59        Ni971   1.896       .  S
O59          C65   1.265       .  A
O60          C65   1.283       .  A
C61         C855   1.390       .  S
O62        Ni953   1.932   1_545  S
O62          C64   1.270       .  A
O63         Ni74   1.885   1_455  S
C64          O70   1.278       .  A
C64         C872   1.479       .  S
C65         C852   1.451       .  S
H66          O67   0.966       .  S
O67         Ni75   1.943   1_545  S
O67         Ni69   1.899   1_545  S
O67       Ni1866   1.907       .  S
O68       Ni2757   1.977       .  S
Ni69       O2756   1.977       .  S
Ni69        O969   1.930   1_565  S
Ni69       O1863   2.018   1_565  S
Ni69        O949   1.986       .  S
O70         Ni75   1.971   1_545  S
O71       Ni1861   2.018   1_445  S
C72          O73   1.282       .  A
C72         C865   1.497       .  S
O73        Ni965   1.930       .  S
Ni74       O1847   1.894       .  S
Ni74       O1859   1.907       .  S
Ni75        O955   1.896       .  S
Ni75        O949   1.895       .  S
O77         Ni83   1.889       .  S
O77          C98   1.246       .  A
O78        Ni101   1.922       .  S
O78          C87   1.279       .  A
O79         Ni83   1.919       .  S
O79        Ni101   1.903       .  S
O79         Ni95   1.954       .  S
O79         H102   0.966       .  S
C80          O97   1.265       .  A
C80          O89   1.284       .  A
C80         C835   1.446       .  S
O81        Ni996   1.923       .  S
O81          C87   1.274       .  A
O82        Ni100   1.932       .  S
O82          C84   1.270       .  A
Ni83         O86   1.886       .  S
Ni83         O88   1.892       .  S
C84          O94   1.279       .  A
C84         C837   1.481       .  S
O85        Ni101   2.014       .  S
O85          C91   1.304       .  A
O86          C91   1.271       .  A
C87         C842   1.493       .  S
O88          C90   1.252       .  A
O89        Ni100   1.971       .  S
C90          O96   1.270       .  A
C90         C833   1.443       .  S
C91         C840   1.461       .  S
H92          O93   0.965       .  S
O93        Ni101   1.975       .  S
O93         Ni95   1.891       .  S
O93        Ni996   1.926       .  S
O94        Ni991   1.975       .  S
Ni95         O99   1.911       .  S
Ni95        O990   1.975       .  S
Ni95        O993   1.893       .  S
O96        Ni101   1.964       .  S
O97        Ni991   1.893       .  S
C98          O99   1.249       .  A
C98         C831   1.395       .  S
Ni100       O977   1.923       .  S
Ni100       O989   1.926   1_545  S
C103        C104   1.557       .  S
C103        C109   1.545       .  S
C103        C107   1.562       .  S
C103        C845   1.545       .  S
C104        H111   1.085       .  S
C104        C105   1.374       .  D
C105        C106   1.528       .  S
C105        C884   1.458       .  S
C106        C110   1.524       .  S
C106        C108   1.527       .  S
C106        H112   1.113       .  S
C107       H1009   1.081       .  S
C107        C108   1.367       .  D
C108        C858   1.452       .  S
C109        H114   1.087       .  S
C109        C110   1.356       .  D
C110        C829   1.432       .  S
H113       C1003   1.081       .  S
O115       Ni121   1.884       .  S
O115        C136   1.247       .  A
O116       Ni139   1.930       .  S
O116        C125   1.282       .  A
O117       Ni121   1.928       .  S
O117       Ni139   1.907       .  S
O117       Ni133   1.963       .  S
O117        H140   0.966       .  S
C118        O135   1.264       .  A
C118        O127   1.282       .  A
C118        C813   1.442       .  S
O119       Ni138   1.921       .  S
O119        C125   1.273       .  A
O120       Ni138   1.938       .  S
O120        C122   1.272       .  A
Ni121       O124   1.883       .  S
Ni121       O126   1.896       .  S
C122        O132   1.276       .  A
C122        C838   1.481       .  S
O123       Ni139   2.014       .  S
O123        C129   1.303       .  A
O124        C129   1.268       .  A
C125        C820   1.498       .  S
O126        C128   1.255       .  A
O127       Ni138   1.967       .  S
C128        O134   1.272       .  A
C128        C815   1.445       .  S
C129        C839   1.461       .  S
H130        O131   0.965       .  S
O131       Ni139   1.979       .  S
O131       Ni133   1.888       .  S
O131       Ni138   1.927       .  S
O132       Ni133   1.971       .  S
Ni133       O137   1.909       .  S
Ni133       O135   1.892       .  S
O134       Ni139   1.963       .  S
C136        O137   1.244       .  A
C136        C817   1.397       .  S
C141        C142   1.555       .  S
C141        C147   1.544       .  S
C141        C145   1.564       .  S
C141        C823   1.545       .  S
C142        H149   1.086       .  S
C142        C143   1.372       .  D
C143        C144   1.529       .  S
C143        C860   1.456       .  S
C144        C146   1.529       .  S
C144       C1940   1.523       .  S
C144       H1942   1.113       .  S
C145        H151   1.082       .  S
C145        C146   1.371       .  D
C146       C2673   1.459       .  S
C147        H152   1.087       .  S
C147       C1940   1.356       .  D
C148       C1936   1.523       .  S
C148       C1939   1.356   1_455  D
C148        C830   1.432       .  S
H150       C1936   1.113       .  S
C153        C154   1.564       .  S
C153        C159   1.543       .  S
C153        C157   1.555       .  S
C153        C804   1.542       .  S
C154        H161   1.081       .  S
C154        C155   1.368       .  D
C155        C156   1.525       .  S
C155        C800   1.452       .  S
C156        C160   1.523       .  S
C156        C158   1.528       .  S
C156        H162   1.113       .  S
C157        H163   1.086       .  S
C157        C158   1.373       .  D
C158        C797   1.452       .  S
C159        H164   1.087       .  S
C159        C160   1.354       .  D
C160        C801   1.433       .  S
O165       Ni171   1.915       .  S
O165        C186   1.274       .  A
O166       Ni189   1.907   1_556  S
O166        C175   1.244       .  A
O167       Ni171   1.936       .  S
O167       Ni189   1.886       .  S
O167       Ni183   1.983       .  S
O167        H190   0.965       .  S
C168        O185   1.303       .  A
C168        O177   1.271       .  A
C168        C789   1.459       .  S
O169       Ni188   1.889   1_556  S
O169        C175   1.246       .  A
O170       Ni188   1.890       .  S
O170        C172   1.254       .  A
Ni171       O174   1.974       .  S
Ni171       O176   1.930       .  S
C172        O182   1.274       .  A
C172        C796   1.444   1_554  S
O173       Ni189   1.889   1_556  S
O173        C179   1.262   1_556  A
O174        C179   1.283       .  A
C175        C791   1.389       .  S
O176        C178   1.269       .  A
O177       Ni188   1.888       .  S
C178        O184   1.277       .  A
C178        C788   1.475       .  S
C179        C793   1.447   1_554  S
H180        O181   0.966       .  S
O181       Ni189   1.958       .  S
O181       Ni183   1.906       .  S
O181       Ni188   1.920       .  S
O182       Ni183   1.966       .  S
Ni183       O187   1.929       .  S
Ni183       O185   2.010       .  S
O184       Ni189   1.973       .  S
C186        O187   1.283       .  A
C186        C807   1.494       .  S
C191        C192   1.566       .  S
C191        C197   1.545       .  S
C191        C195   1.556       .  S
C191        C778   1.548       .  S
C192       H1095   1.081       .  S
C192        C193   1.368       .  D
C193        C194   1.522       .  S
C193        C773   1.454       .  S
C194        C198   1.521       .  S
C194        C196   1.524       .  S
C194        H200   1.113       .  S
C195        H201   1.086       .  S
C195        C196   1.374       .  D
C196        C775   1.450       .  S
C197        H202   1.086       .  S
C197        C198   1.358       .  D
C198        C802   1.433       .  S
H199       C1088   1.081       .  S
O203      Ni1105   1.920       .  S
O203        C224   1.274       .  A
O204       Ni227   1.908   1_556  S
O204       C2005   1.242       .  A
O205       Ni227   1.884       .  S
O205       Ni221   1.979       .  S
O205      Ni1105   1.930       .  S
O205        H228   0.965       .  S
C206        O215   1.271       .  A
C206       O2015   1.299   1_455  A
C206        C790   1.460       .  S
O207       Ni226   1.887   1_656  S
O207        C213   1.247   1_655  A
O208      Ni2018   1.892       .  S
O208        C210   1.256       .  A
Ni209       O212   1.976       .  S
Ni209       O214   1.930       .  S
Ni209      O1099   1.920       .  S
Ni209      O1101   1.930       .  S
C210        O220   1.273       .  A
C210        C769   1.443   1_554  S
O211      Ni1123   1.891       .  S
O211        C217   1.263       .  A
O212        C217   1.284       .  A
C213       O1996   1.242   1_455  A
C213        C768   1.396       .  S
O214        C216   1.269       .  A
O215       Ni226   1.892       .  S
C216        O222   1.276       .  A
C216       C2579   1.475       .  S
C217        C771   1.448   1_554  S
H218       O2011   0.966   1_455  S
O219       Ni227   1.965       .  S
O219       Ni221   1.908       .  S
O219      Ni2018   1.925       .  S
O219       H2010   0.966       .  S
O220       Ni221   1.960       .  S
Ni221       O225   1.926       .  S
Ni221       O223   2.004       .  S
O222      Ni1123   1.971       .  S
O223       C1998   1.299       .  A
C224        O225   1.281       .  A
C224        C781   1.497       .  S
Ni226      O2000   1.892   1_455  S
Ni226      O2011   1.925   1_455  S
Ni227      O1107   1.890       .  S
Ni227      O1118   1.972       .  S
O229       Ni235   1.895       .  S
O229        C250   1.244       .  A
O230      Ni1149   1.927       .  S
O230        C239   1.281       .  A
O231       Ni235   1.912       .  S
O231       Ni253   1.896   1_545  S
O231       Ni247   1.944   1_545  S
O231        H254   0.966       .  S
C232        O249   1.265       .  A
C232        O241   1.285       .  A
C232        C854   1.454       .  S
O233       Ni252   1.924       .  S
O233        C239   1.276       .  A
O234      Ni1148   1.928   1_545  S
O234        C236   1.269       .  A
Ni235       O238   1.887       .  S
Ni235       O240   1.886       .  S
C236        O246   1.276       .  A
C236        C754   1.472       .  S
O237       Ni253   2.017   1_545  S
O237        C243   1.307       .  A
O238        C243   1.274       .  A
C239        C761   1.492       .  S
O240       C1138   1.249   1_545  A
O241       Ni252   1.978       .  S
C242        O248   1.273       .  A
C242       O1136   1.249       .  A
C242        C851   1.448       .  S
C243        C755   1.462       .  S
H244        O245   0.965       .  S
O245       Ni252   1.931       .  S
O245      Ni1149   1.982       .  S
O245      Ni1143   1.893       .  S
O246       Ni247   1.965   1_545  S
Ni247       O251   1.911   1_565  S
Ni247      O1145   1.894       .  S
Ni247      O1141   1.893       .  S
O248      Ni1149   1.976       .  S
O249      Ni1143   1.893       .  S
C250        O251   1.254       .  A
C250        C875   1.392       .  S
Ni252      O1130   1.928       .  S
Ni253      O1126   1.927   1_565  S
Ni253      O1144   1.976       .  S
Ni253      O1141   1.982       .  S
C255        C256   1.554       .  S
C255        C261   1.544       .  S
C255        C259   1.564       .  S
C255        C758   1.540       .  S
C256       H1159   1.085       .  S
C256        C257   1.372       .  D
C257        C258   1.528       .  S
C257        C774   1.453       .  S
C258        C262   1.522       .  S
C258        C260   1.525       .  S
C258        H264   1.113       .  S
C259        H265   1.081       .  S
C259        C260   1.367       .  D
C260        C798   1.453       .  S
C261        H266   1.087       .  S
C261        C262   1.355       .  D
C262        C751   1.429       .  S
H263       C1152   1.085       .  S
O267       Ni273   1.883       .  S
O267        C288   1.247       .  A
O268       Ni291   1.930       .  S
O268        C277   1.280       .  A
O269       Ni273   1.926       .  S
O269       Ni291   1.902       .  S
O269       Ni285   1.968       .  S
O269        H292   0.966       .  S
C270        O279   1.284       .  A
C270       O2079   1.263       .  A
C270        C880   1.449       .  S
O271       Ni290   1.915       .  S
O271        C277   1.273       .  A
O272       Ni290   1.932       .  S
O272        C274   1.268       .  A
Ni273       O276   1.889       .  S
Ni273       O278   1.897       .  S
C274        O284   1.273       .  A
C274       C2545   1.472       .  S
O275       Ni291   2.006       .  S
O275        C281   1.299       .  A
O276        C281   1.268       .  A
C277        C742   1.490       .  S
O278        C280   1.258       .  A
O279      Ni2082   1.977       .  S
C280        O286   1.278       .  A
C280        C878   1.450       .  S
C281        C756   1.460       .  S
H282        O283   0.966       .  S
O283       Ni291   1.983       .  S
O283       Ni285   1.883       .  S
O283       Ni290   1.933       .  S
O284       Ni285   1.966       .  S
Ni285       O289   1.906       .  S
Ni285       O287   1.891       .  S
O286       Ni291   1.970       .  S
O287       C2062   1.263       .  A
C288        O289   1.240       .  A
C288        C856   1.402       .  S
Ni290      O2071   1.977       .  S
C293        C294   1.553       .  S
C293        C299   1.542       .  S
C293        C297   1.561       .  S
C293        C745   1.538       .  S
C294        H301   1.086       .  S
C294        C295   1.371       .  D
C295        C296   1.529       .  S
C295        C799   1.451       .  S
C296        C300   1.524       .  S
C296        C298   1.529       .  S
C296        H302   1.113       .  S
C297        H303   1.081       .  S
C297        C298   1.366       .  D
C298        C776   1.453       .  S
C299        H304   1.087       .  S
C299        C300   1.354       .  D
C300        C752   1.430       .  S
C305        C306   1.553       .  S
C305        C311   1.548       .  S
C305        C309   1.562       .  S
C305        C732   1.543       .  S
C306        H313   1.086       .  S
C306        C307   1.371       .  D
C307        C308   1.528       .  S
C307        C726   1.451       .  S
C308        C312   1.523       .  S
C308        C310   1.527       .  S
C308        H314   1.113       .  S
C309        H315   1.082       .  S
C309        C310   1.367       .  D
C310        C728   1.453       .  S
C311        H316   1.086       .  S
C311        C312   1.359       .  D
C312        C730   1.436       .  S
O317       Ni323   1.890   1_655  S
O317        C338   1.247   1_655  A
O318       Ni341   1.920       .  S
O318        C327   1.277       .  A
O319       Ni341   1.903       .  S
O319       Ni335   1.958       .  S
O319      Ni2115   1.919       .  S
O319       H2134   0.966       .  S
C320        O337   1.264       .  A
C320        O329   1.284       .  A
C320        C770   1.447       .  S
O321       Ni340   1.928       .  S
O321        C327   1.275       .  A
O322       Ni340   1.927       .  S
O322        C324   1.269       .  A
Ni323       O326   1.891       .  S
Ni323      O2120   1.892   1_455  S
Ni323      O2111   1.919   1_455  S
C324        O334   1.277       .  A
C324       C2513   1.473       .  S
O325       Ni341   2.001       .  S
O325       C2123   1.299       .  A
O326        C331   1.271       .  A
C327        C735   1.494       .  S
O328      Ni2115   1.892       .  S
O328        C330   1.254       .  A
O329       Ni340   1.975       .  S
C330        O336   1.273       .  A
C330        C772   1.444       .  S
C331       O2117   1.299   1_455  A
C331        C723   1.456       .  S
H332        O333   0.965       .  S
O333       Ni341   1.975       .  S
O333       Ni335   1.888       .  S
O333       Ni340   1.929       .  S
O334       Ni335   1.971       .  S
Ni335       O339   1.909       .  S
Ni335       O337   1.891       .  S
O336       Ni341   1.964       .  S
C338       O2131   1.246   1_455  A
C338        C792   1.390       .  S
O339       C2130   1.246       .  A
H342       O2111   0.966   1_455  S
C343        C347   1.564       .  S
C343       C1240   1.553       .  S
C343       C1245   1.545       .  S
C343        C712   1.540       .  S
C344       C1239   1.553       .  S
C344        H351   1.086       .  S
C344        C345   1.370       .  D
C345        C346   1.528       .  S
C345        C710   1.452       .  S
C346        C350   1.524       .  S
C346       C1244   1.526       .  S
C346        H352   1.113       .  S
C347        H353   1.082       .  S
C347        C348   1.369       .  D
C348       C1242   1.526       .  S
C348        C708   1.455       .  S
C349       C1239   1.545       .  S
C349        H354   1.087       .  S
C349        C350   1.357       .  D
C350        C729   1.436       .  S
O355       Ni361   1.889       .  S
O355       C1272   1.246   1_545  A
O356       Ni379   1.922       .  S
O356       C1261   1.279       .  A
O357       Ni361   1.917   1_565  S
O357       Ni379   1.903       .  S
O357      Ni1269   1.952       .  S
O357       H1276   0.966       .  S
C358        O375   1.265       .  A
C358        O367   1.283       .  A
C358        C795   1.447       .  S
O359       Ni378   1.915       .  S
O359        C365   1.273       .  A
O360       Ni378   1.926       .  S
O360        C362   1.268       .  A
Ni361       O364   1.884       .  S
Ni361       O366   1.893       .  S
C362        O372   1.277       .  A
C362        C722   1.472       .  S
O363       Ni379   2.008   1_545  S
O363        C369   1.302       .  A
O364        C369   1.271       .  A
C365       O1252   1.279       .  A
C365        C715   1.489       .  S
O366        C368   1.252       .  A
O367       Ni378   1.969       .  S
C368        O374   1.271       .  A
C368        C794   1.443       .  S
C369        C724   1.455       .  S
H370        O371   0.966       .  S
O371       Ni373   1.890       .  S
O371       Ni378   1.928       .  S
O371      Ni1275   1.976       .  S
O372       Ni373   1.970       .  S
Ni373       O377   1.909       .  S
Ni373       O375   1.893       .  S
Ni373      O1253   1.952       .  S
O374       Ni379   1.965   1_545  S
C376        O377   1.249       .  A
C376       O1251   1.246       .  A
C376        C767   1.393       .  S
Ni379      O1267   1.976       .  S
H380       O1253   0.966       .  S
O381       Ni387   1.917       .  S
O381        C402   1.272       .  A
O382       Ni405   1.910       .  S
O382        C391   1.251       .  A
O383       Ni387   1.930       .  S
O383       Ni405   1.889       .  S
O383       Ni399   1.976       .  S
O383        H406   0.966       .  S
C384        O401   1.301       .  A
C384        O393   1.273       .  A
C384        C693   1.452       .  S
O385       Ni404   1.893       .  S
O385        C391   1.246       .  A
O386       Ni404   1.890       .  S
O386        C388   1.251       .  A
Ni387       O392   1.929       .  S
Ni387      O2182   1.965       .  S
C388        O398   1.274       .  A
C388        C689   1.446       .  S
O389       Ni405   1.890       .  S
O389       C2187   1.264       .  A
O390      Ni2179   1.965       .  S
O390        C395   1.282       .  A
C391        C687   1.389       .  S
O392        C394   1.269       .  A
O393       Ni404   1.887       .  S
C394        O400   1.279       .  A
C394       C2487   1.478       .  S
C395       O2181   1.264   1_455  A
C395        C691   1.442       .  S
H396        O397   0.966       .  S
O397       Ni405   1.950       .  S
O397       Ni399   1.902       .  S
O397       Ni404   1.915       .  S
O398       Ni399   1.971       .  S
Ni399       O403   1.925       .  S
Ni399       O401   2.001       .  S
O400       Ni405   1.978       .  S
C402        O403   1.280       .  A
C402        C698   1.491       .  S
C407        C411   1.557       .  S
C407       C1304   1.561       .  S
C407       C1309   1.545       .  S
C407        C701   1.542       .  S
C408       C1303   1.561   1_545  S
C408        H415   1.082       .  S
C408        C409   1.368       .  D
C409        C410   1.527       .  S
C409        C725   1.452       .  S
C410        C414   1.524       .  S
C410       C1308   1.528       .  S
C410        H416   1.113       .  S
C411        H417   1.086       .  S
C411        C412   1.374       .  D
C412       C1306   1.528       .  S
C412        C707   1.454       .  S
C413       C1303   1.545   1_545  S
C413        H418   1.087       .  S
C413        C414   1.355       .  D
C414        C685   1.437       .  S
O419       Ni425   1.915       .  S
O419        C440   1.273       .  A
O420       Ni443   1.910       .  S
O420        C429   1.254       .  A
O421       Ni425   1.927       .  S
O421       Ni443   1.891       .  S
O421       Ni437   1.980       .  S
O421        H444   0.966       .  S
C422        O439   1.303       .  A
C422        O431   1.273       .  A
C422        C694   1.453       .  S
O423       Ni442   1.893       .  S
O423        C429   1.246       .  A
O424       Ni442   1.891       .  S
O424        C426   1.250       .  A
Ni425       O428   1.963       .  S
Ni425       O430   1.931       .  S
C426        O436   1.272       .  A
C426        C669   1.445       .  S
O427       Ni443   1.894       .  S
O427        C433   1.266       .  A
O428        C433   1.281       .  A
C429        C673   1.391       .  S
O430        C432   1.270       .  A
O431       Ni442   1.885       .  S
C432        O438   1.279       .  A
C432        C696   1.478       .  S
C433        C671   1.443       .  S
H434        O435   0.966       .  S
O435       Ni443   1.947       .  S
O435       Ni437   1.900       .  S
O435       Ni442   1.910       .  S
O436       Ni437   1.971       .  S
Ni437       O441   1.925       .  S
Ni437       O439   2.006       .  S
O438       Ni443   1.974       .  S
C440        O441   1.280       .  A
C440        C676   1.494       .  S
C445        C446   1.565       .  S
C445        C451   1.547       .  S
C445        C449   1.554       .  S
C445        C679   1.545       .  S
C446        H453   1.082       .  S
C446        C447   1.368       .  D
C447        C448   1.524       .  S
C447        C709   1.453       .  S
C448        C452   1.521       .  S
C448        C450   1.526       .  S
C448        H454   1.113       .  S
C449        H455   1.086       .  S
C449        C450   1.372       .  D
C450        C727   1.451       .  S
C451        H456   1.087       .  S
C451        C452   1.359       .  D
C452        C686   1.436       .  S
C457        C458   1.555       .  S
C457        C463   1.545       .  S
C457        C461   1.564       .  S
C457        C660   1.544       .  S
C458        H465   1.086       .  S
C458        C459   1.372       .  D
C459        C460   1.526       .  S
C459       C2447   1.451       .  S
C460        C464   1.521       .  S
C460        C462   1.524       .  S
C460        H466   1.113       .  S
C461        H467   1.082       .  S
C461        C462   1.368       .  D
C462        C654   1.451       .  S
C463        H468   1.086       .  S
C463        C464   1.357       .  D
C464       C2450   1.432       .  S
O469      Ni2267   1.889       .  S
O469        C490   1.248       .  A
O470       Ni493   1.929       .  S
O470        C479   1.281       .  A
O471       Ni493   1.908       .  S
O471       Ni487   1.967       .  S
O471      Ni2267   1.930       .  S
O471        H494   0.965       .  S
C472        O489   1.263       .  A
C472        O481   1.284       .  A
C472        C670   1.447       .  S
O473       Ni492   1.918       .  S
O473        C479   1.273       .  A
O474       Ni492   1.932       .  S
O474        C476   1.269       .  A
Ni475       O478   1.892   1_655  S
Ni475       O480   1.894   1_655  S
Ni475      O2261   1.889       .  S
Ni475      O2263   1.930       .  S
C476        O486   1.278       .  A
C476        C649   1.479       .  S
O477      Ni2285   1.996   1_455  S
O477        C483   1.297       .  A
O478        C483   1.270       .  A
C479        C663   1.494       .  S
O480        C482   1.258       .  A
O481       Ni492   1.975       .  S
C482        O488   1.273   1_455  A
C482        C672   1.438       .  S
C483        C651   1.456       .  S
H484        O485   0.966       .  S
O485       Ni493   1.975       .  S
O485       Ni487   1.885       .  S
O485       Ni492   1.926       .  S
O486       Ni487   1.977       .  S
Ni487       O491   1.910       .  S
Ni487       O489   1.888       .  S
O488      Ni2285   1.955       .  S
C490        O491   1.240       .  A
C490        C688   1.397       .  S
Ni493      O2269   1.996       .  S
Ni493      O2280   1.955       .  S
O495       Ni501   1.884       .  S
O495        C516   1.248       .  A
O496       Ni519   1.924       .  S
O496        C505   1.278       .  A
O497       Ni501   1.927       .  S
O497       Ni519   1.902       .  S
O497       Ni513   1.966       .  S
O497        H520   0.966       .  S
C498        O515   1.263       .  A
C498        O507   1.285       .  A
C498        C690   1.449       .  S
O499       Ni518   1.924       .  S
O499        C505   1.274       .  A
O500       Ni518   1.935       .  S
O500        C502   1.270       .  A
Ni501       O504   1.888       .  S
Ni501       O506   1.898       .  S
C502        O512   1.275       .  A
C502        C650   1.479       .  S
O503       Ni519   2.001       .  S
O503        C509   1.297       .  A
O504        C509   1.267       .  A
C505        C640   1.492       .  S
O506        C508   1.260       .  A
O507       Ni518   1.978       .  S
C508        O514   1.275       .  A
C508        C692   1.440       .  S
C509        C652   1.455       .  S
H510        O511   0.966       .  S
O511       Ni519   1.979       .  S
O511       Ni513   1.885       .  S
O511       Ni518   1.931       .  S
O512       Ni513   1.971       .  S
Ni513       O517   1.907       .  S
Ni513       O515   1.891       .  S
O514       Ni519   1.957       .  S
C516        O517   1.240       .  A
C516        C674   1.402       .  S
C521        C522   1.558       .  S
C521       C1423   1.545       .  S
C521       C1421   1.562       .  S
C521        C643   1.544       .  S
C522        H529   1.085       .  S
C522        C523   1.375       .  D
C523       C1420   1.525       .  S
C523        C638   1.454       .  S
C524        C528   1.522       .  S
C524        C526   1.525       .  S
C524       C1419   1.525   1_545  S
C524        H530   1.113       .  S
C525       C1417   1.562   1_545  S
C525        H531   1.082       .  S
C525        C526   1.367       .  D
C526        C636   1.451       .  S
C527       C1417   1.545   1_545  S
C527        H532   1.087       .  S
C527        C528   1.356       .  D
C528        C657   1.433       .  S
O533       Ni539   1.915       .  S
O533        C554   1.273       .  A
O534       Ni557   1.910       .  S
O534        C543   1.247       .  A
O535       Ni539   1.926       .  S
O535       Ni557   1.884       .  S
O535       Ni551   1.975       .  S
O535        H558   0.965       .  S
C536        O553   1.298       .  A
C536        O545   1.273       .  A
C536        C624   1.456       .  S
O537       Ni556   1.891       .  S
O537        C543   1.247       .  A
O538       Ni556   1.890       .  S
O538        C540   1.254       .  A
Ni539       O542   1.973       .  S
Ni539       O544   1.928       .  S
C540        O550   1.274       .  A
C540        C836   1.442       .  S
O541       Ni557   1.892       .  S
O541        C547   1.263       .  A
O542        C547   1.283       .  A
C543        C818   1.391       .  S
O544        C546   1.268       .  A
O545       Ni556   1.895       .  S
C546        O552   1.280       .  A
C546        C621   1.480       .  S
C547        C834   1.446       .  S
H548        O549   0.966       .  S
O549       Ni557   1.960       .  S
O549       Ni551   1.906       .  S
O549       Ni556   1.916       .  S
O550       Ni551   1.964       .  S
Ni551       O555   1.923       .  S
Ni551       O553   1.998       .  S
O552       Ni557   1.983       .  S
C554        O555   1.278       .  A
C554        C626   1.491       .  S
C559        C560   1.563       .  S
C559        C565   1.545       .  S
C559        C563   1.553       .  S
C559        C629   1.540       .  S
C560        H567   1.081       .  S
C560        C561   1.366       .  D
C561        C562   1.526       .  S
C561        C656   1.453       .  S
C562        C566   1.523       .  S
C562        C564   1.528       .  S
C562        H568   1.113       .  S
C563        H569   1.086       .  S
C563        C564   1.371       .  D
C564        C635   1.450       .  S
C565        H570   1.087       .  S
C565        C566   1.358       .  D
C566        C620   1.435       .  S
O571       Ni577   1.913       .  S
O571       C1488   1.272       .  A
O572       Ni595   1.909       .  S
O572        C581   1.242       .  A
O573       Ni577   1.932       .  S
O573       Ni595   1.886       .  S
O573      Ni1485   1.981       .  S
O573        H596   0.966       .  S
C574        O591   1.299       .  A
C574        O583   1.269       .  A
C574        C623   1.455       .  S
O575       Ni594   1.884       .  S
O575       C1477   1.247   1_545  A
O576       Ni594   1.896       .  S
O576        C578   1.258       .  A
Ni577       O580   1.969       .  S
Ni577       O582   1.936       .  S
C578        O588   1.272       .  A
C578        C814   1.439       .  S
O579       Ni595   1.891       .  S
O579        C585   1.263       .  A
O580        C585   1.282       .  A
C581       O1471   1.247       .  A
C581        C832   1.399       .  S
O582        C584   1.271       .  A
O583       Ni594   1.886       .  S
C584        O590   1.276       .  A
C584        C622   1.480       .  S
C585        C816   1.446       .  S
H586        O587   0.966       .  S
O587       Ni589   1.909       .  S
O587       Ni594   1.926   1_565  S
O587      Ni1491   1.962       .  S
O588       Ni589   1.955   1_545  S
Ni589       O593   1.927       .  S
Ni589       O591   2.003   1_565  S
Ni589      O1469   1.981       .  S
O590       Ni595   1.970       .  S
C592        O593   1.281       .  A
C592       O1467   1.272       .  A
C592        C610   1.494       .  S
Ni595      O1483   1.962       .  S
C597        C601   1.552       .  S
C597       C1494   1.564   1_545  S
C597       C2395   1.544       .  S
C597        C613   1.541   1_545  S
C598       C1493   1.564       .  S
C598       H2397   1.081       .  S
C598       C2391   1.368       .  D
C599       C1496   1.528       .  S
C599       C2390   1.368   1_455  D
C599        C637   1.457       .  S
C600        C604   1.526       .  S
C600       C1495   1.528       .  S
C600       C2394   1.529   1_455  S
C600        H606   1.113       .  S
C601        H607   1.086       .  S
C601        C602   1.370       .  D
C602       C2392   1.529       .  S
C602        C653   1.450       .  S
C603       C2389   1.544       .  S
C603        H608   1.087       .  S
C603        C604   1.357   1_655  D
C604        C619   1.436       .  S
H605       C2390   1.081       .  S
C609        C614   1.400       .  A
C609       C2402   1.408       .  A
C609        H615   1.084       .  S
C610        C611   1.405   1_565  A
C610       C2401   1.408       .  A
C611        C612   1.409       .  A
C611        H616   1.082       .  S
C612        C613   1.415   1_545  A
C612        H617   1.083       .  S
C613       C2406   1.409       .  A
C614       C2405   1.409       .  A
C614        H618   1.077       .  S
C619        C620   1.202       .  T
C621        C622   1.233       .  T
C623        C624   1.220       .  T
C625        C626   1.406       .  A
C625        C630   1.397       .  A
C625        H631   1.084       .  S
C626        C627   1.405       .  A
C627        C628   1.409       .  A
C627        H632   1.082       .  S
C628        C629   1.415       .  A
C628        H633   1.083       .  S
C629        C630   1.409       .  A
C630        H634   1.076       .  S
C635        C636   1.211       .  T
C637        C638   1.214       .  T
C639        C644   1.404       .  A
C639       C1536   1.407       .  A
C639        H645   1.083       .  S
C640        C641   1.404       .  A
C640       C1535   1.407       .  A
C641        C642   1.407       .  A
C641        H646   1.082       .  S
C642        C643   1.413       .  A
C642        H647   1.083       .  S
C643       C1540   1.412       .  A
C644       C1539   1.412       .  A
C644        H648   1.077       .  S
C649        C650   1.232       .  T
C651        C652   1.221       .  T
C653        C654   1.211       .  T
C655       C2251   1.451       .  S
C655        C656   1.212       .  T
C657        C658   1.200       .  T
C658       C2256   1.432       .  S
C659        C660   1.410       .  A
C659        C664   1.402       .  A
C659        H665   1.077       .  S
C660        C661   1.415       .  A
C661        C662   1.409       .  A
C661       H2458   1.083       .  S
C662        C663   1.404       .  A
C662       H2459   1.083       .  S
C663        C664   1.408       .  A
C664        H668   1.083       .  S
H666       C2453   1.083   1_455  S
H667       C2454   1.083       .  S
C669        C670   1.214       .  T
C671        C672   1.210       .  T
C673        C674   1.187       .  T
C675        C676   1.405       .  A
C675        C680   1.410       .  A
C675        H681   1.083       .  S
C676        C677   1.407       .  A
C677        C678   1.401       .  A
C677        H682   1.084       .  S
C678        C679   1.410       .  A
C678        H683   1.077       .  S
C679        C680   1.415       .  A
C680        H684   1.083       .  S
C685        C686   1.202       .  T
C687        C688   1.185       .  T
C689        C690   1.215       .  T
C691        C692   1.211       .  T
C693        C694   1.218       .  T
C695       C2186   1.478       .  S
C695        C696   1.231       .  T
C697        C698   1.403       .  A
C697        C702   1.406       .  A
C697        H703   1.082       .  S
C698        C699   1.408       .  A
C699        C700   1.403       .  A
C699       H1600   1.084       .  S
C700        C701   1.411       .  A
C700       H1601   1.077       .  S
C701        C702   1.413       .  A
C702        H706   1.083       .  S
H704       C1595   1.084       .  S
H705       C1596   1.077       .  S
C707        C708   1.214       .  T
C709        C710   1.213       .  T
C711        C716   1.400       .  A
C711       C1608   1.409       .  A
C711        H717   1.077       .  S
C712        C713   1.415       .  A
C712       C1607   1.409       .  A
C713        C714   1.407       .  A
C713        H718   1.083       .  S
C714        C715   1.404       .  A
C714        H719   1.082       .  S
C715       C1612   1.407       .  A
C716       C1611   1.407       .  A
C716        H720   1.084       .  S
C721       C2116   1.473       .  S
C721        C722   1.228       .  T
C723        C724   1.220       .  T
C725        C726   1.212       .  T
C727        C728   1.212       .  T
C729        C730   1.202       .  T
C731        C732   1.413       .  A
C731        C736   1.407       .  A
C731        H737   1.083       .  S
C732        C733   1.411       .  A
C733        C734   1.404       .  A
C733        H738   1.077       .  S
C734        C735   1.407       .  A
C734        H739   1.083       .  S
C735        C736   1.405       .  A
C736        H740   1.081       .  S
C741        C742   1.404       .  A
C741        C746   1.407       .  A
C741        H747   1.083       .  S
C742        C743   1.407       .  A
C743        C744   1.399       .  A
C743        H748   1.083       .  S
C744        C745   1.409       .  A
C744        H749   1.077       .  S
C745        C746   1.414       .  A
C746        H750   1.083       .  S
C751        C752   1.198       .  T
C753       C2066   1.472       .  S
C753        C754   1.228       .  T
C755        C756   1.224       .  T
C757        C758   1.414       .  A
C757        C762   1.407       .  A
C757        H763   1.083       .  S
C758        C759   1.409       .  A
C759        C760   1.401       .  A
C759       H1660   1.077       .  S
C760        C761   1.407       .  A
C760       H1661   1.083       .  S
C761        C762   1.405       .  A
C762        H766   1.083       .  S
H764       C1655   1.077       .  S
H765       C1656   1.083       .  S
C767        C768   1.186       .  T
C769        C770   1.213       .  T
C771        C772   1.214       .  T
C773        C774   1.213       .  T
C775        C776   1.212       .  T
C777        C778   1.410       .  A
C777        C782   1.401       .  A
C777       H1679   1.076       .  S
C778        C779   1.416       .  A
C779        C780   1.412       .  A
C779        H784   1.083       .  S
C780        C781   1.406       .  A
C780        H785   1.082       .  S
C781        C782   1.407       .  A
C782       H1682   1.083       .  S
H783       C1673   1.076   1_545  S
H786       C1678   1.083       .  S
C787       C2008   1.475       .  S
C787        C788   1.229       .  T
C789        C790   1.223       .  T
C791        C792   1.184       .  T
C793        C794   1.213       .  T
C795        C796   1.213       .  T
C797        C798   1.212       .  T
C799        C800   1.212       .  T
C801        C802   1.200       .  T
C803        C804   1.410       .  A
C803        C808   1.401       .  A
C803        H809   1.077       .  S
C804        C805   1.415       .  A
C805        C806   1.409       .  A
C805        H810   1.083       .  S
C806        C807   1.404       .  A
C806        H811   1.083       .  S
C807        C808   1.408       .  A
C808        H812   1.083       .  S
C813        C814   1.210       .  T
C815        C816   1.213       .  T
C817        C818   1.186       .  T
C819        C820   1.410       .  A
C819        C824   1.405       .  A
C819       H2617   1.083       .  S
C820        C821   1.404       .  A
C821        C822   1.408       .  A
C821        H826   1.082       .  S
C822        C823   1.414       .  A
C822        H827   1.083       .  S
C823        C824   1.411       .  A
C824       H2620   1.078       .  S
H825       C2611   1.083       .  S
H828       C2616   1.078       .  S
C829        C830   1.200       .  T
C831        C832   1.187       .  T
C833        C834   1.213       .  T
C835        C836   1.213       .  T
C837        C838   1.233       .  T
C839        C840   1.224       .  T
C841        C842   1.404       .  A
C841        C846   1.407       .  A
C841        H847   1.082       .  S
C842        C843   1.407       .  A
C843        C844   1.403       .  A
C843        H848   1.083       .  S
C844        C845   1.411       .  A
C844        H849   1.077       .  S
C845        C846   1.414       .  A
C846        H850   1.083       .  S
C851        C852   1.216       .  T
C853        C854   1.218       .  T
C855        C856   1.187       .  T
C857       C1836   1.450       .  S
C857        C858   1.212       .  T
C859        C860   1.215       .  T
C861        C862   1.416       .  A
C861        C866   1.410       .  A
C861       H2659   1.083       .  S
C862        C863   1.409       .  A
C863        C864   1.403       .  A
C863        H868   1.077       .  S
C864        C865   1.409       .  A
C864        H869   1.083       .  S
C865        C866   1.405       .  A
C866       H2662   1.083       .  S
H867       C2653   1.083   1_455  S
H870       C2658   1.083       .  S
C871        C872   1.232       .  T
C873        C874   1.223       .  T
C875        C876   1.188       .  T
C877        C878   1.217       .  T
C879        C880   1.215       .  T
C881       C1938   1.459       .  S
C881        C882   1.216       .  T
C883        C884   1.216       .  T
C885        C886   1.199       .  T
C886       C1838   1.430       .  S
C887        C888   1.417       .  A
C887        C892   1.413       .  A
C887        H893   1.083       .  S
C888        C889   1.410       .  A
C889        C890   1.404       .  A
C889        H894   1.077       .  S
C890        C891   1.410       .  A
C890        H895   1.083       .  S
C891        C892   1.405       .  A
C892        H896   1.083       .  S
C897        C898   1.569       .  S
C897        C903   1.542       .  S
C897        C901   1.559       .  S
C897       C1784   1.551       .  S
C898        H905   1.082       .  S
C898        C899   1.373       .  D
C899        C900   1.523       .  S
C899       C1779   1.459       .  S
C900        C904   1.521       .  S
C900        C902   1.525       .  S
C900        H906   1.113       .  S
C901        H907   1.085       .  S
C901        C902   1.375       .  D
C902       C1778   1.456       .  S
C903        H908   1.087       .  S
C903        C904   1.356       .  D
C904       C1781   1.430       .  S
O909       Ni915   1.916       .  S
O909        C930   1.274       .  A
O910       Ni933   1.905       .  S
O910        C919   1.238       .  A
O911       Ni915   1.936       .  S
O911       Ni933   1.881       .  S
O911       Ni927   1.985       .  S
O911        H934   0.966       .  S
C912        O929   1.298       .  A
C912        O921   1.270       .  A
C912       C1770   1.462       .  S
O913       Ni932   1.886       .  S
O913        C919   1.247       .  A
O914       Ni932   1.892       .  S
O914        C916   1.258       .  A
Ni915       O918   1.980       .  S
Ni915       O920   1.936       .  S
C916        O926   1.278       .  A
C916       C1775   1.446       .  S
O917       Ni933   1.893       .  S
O917        C923   1.262       .  A
O918        C923   1.284       .  A
C919       C1772   1.402       .  S
O920        C922   1.270       .  A
O921       Ni932   1.892       .  S
C922        O928   1.274       .  A
C922       C1767   1.478       .  S
C923       C1773   1.453       .  S
H924        O925   0.966       .  S
O925       Ni933   1.974       .  S
O925       Ni927   1.905       .  S
O925       Ni932   1.936       .  S
O926       Ni927   1.968       .  S
Ni927       O931   1.939       .  S
Ni927       O929   2.003       .  S
O928       Ni933   1.968       .  S
C930        O931   1.284       .  A
C930       C1787   1.500       .  S
C935        C936   1.567       .  S
C935        C941   1.542       .  S
C935        C939   1.555       .  S
C935       C1758   1.544       .  S
C936        H943   1.082       .  S
C936        C937   1.371       .  D
C937        C938   1.525       .  S
C937       C1755   1.456       .  S
C938        C942   1.522       .  S
C938        C940   1.527       .  S
C938        H944   1.113       .  S
C939        C940   1.372       .  D
C940       C3545   1.450       .  S
C941        H946   1.087       .  S
C941        C942   1.354       .  D
C942       C3574   1.431       .  S
O947       Ni953   1.920       .  S
O947        C968   1.274   1_565  A
O948       Ni971   1.911       .  S
O948        C957   1.254       .  A
O949       Ni953   1.931       .  S
O949        H972   0.966       .  S
C950        O967   1.307       .  A
C950        O959   1.273       .  A
C950       C1769   1.459       .  S
O951      Ni2762   1.894       .  S
O951        C957   1.243       .  A
O952       Ni970   1.890   1_455  S
Ni953       O956   1.971       .  S
C954        O964   1.274   1_455  A
C954       C1749   1.452       .  S
O955        C961   1.265       .  A
O956        C961   1.283       .  A
C957       C1751   1.390       .  S
O958        C960   1.270       .  A
O959       Ni970   1.885   1_455  S
C960        O966   1.278       .  A
C960       C1768   1.479       .  S
C961       C1748   1.451       .  S
H962        O963   0.966       .  S
O963       Ni971   1.942       .  S
O963       Ni965   1.899       .  S
O963      Ni2762   1.907       .  S
O964      Ni1861   1.977       .  S
Ni965      O1860   1.977       .  S
Ni965      O2759   2.018       .  S
O966       Ni971   1.971       .  S
O967      Ni2757   2.018   1_455  S
C968        O969   1.282       .  A
C968       C1761   1.497   1_545  S
Ni970      O2743   1.894       .  S
Ni970      O2755   1.907       .  S
O973       Ni979   1.889       .  S
O973        C994   1.246       .  A
O974       Ni997   1.922       .  S
O974        C983   1.279       .  A
O975       Ni979   1.919       .  S
O975       Ni997   1.903       .  S
O975       Ni991   1.954   1_565  S
O975        H998   0.966       .  S
C976        O993   1.265       .  A
C976        O985   1.284       .  A
C976       C1731   1.447       .  S
O977        C983   1.274   1_545  A
O978       Ni996   1.932       .  S
O978        C980   1.270       .  A
Ni979       O982   1.886       .  S
Ni979       O984   1.892       .  S
C980        O990   1.279       .  A
C980       C1733   1.481       .  S
O981       Ni997   2.013       .  S
O981        C987   1.304       .  A
O982        C987   1.271       .  A
C983       C1738   1.493       .  S
O984        C986   1.252       .  A
O985       Ni996   1.971       .  S
C986        O992   1.270       .  A
C986       C1729   1.444       .  S
C987       C1736   1.461       .  S
H988        O989   0.965       .  S
O989       Ni997   1.975       .  S
O989       Ni991   1.891   1_565  S
Ni991       O995   1.911       .  S
O992       Ni997   1.964       .  S
C994        O995   1.249   1_565  A
C994       C1727   1.394       .  S
C999       C1000   1.557       .  S
C999       C1005   1.545       .  S
C999       C1003   1.562       .  S
C999       C1741   1.545       .  S
C1000      H1007   1.085       .  S
C1000      C1001   1.374       .  D
C1001      C1002   1.528       .  S
C1001      C1780   1.458       .  S
C1002      C1006   1.524       .  S
C1002      C1004   1.527       .  S
C1002      H1008   1.113       .  S
C1003      C1004   1.367       .  D
C1004      C1754   1.452       .  S
C1005      H1010   1.087       .  S
C1005      C1006   1.356       .  D
C1006      C1725   1.433       .  S
O1011     Ni1017   1.883       .  S
O1011      C1032   1.247       .  A
O1012     Ni1035   1.930       .  S
O1012      C1021   1.282       .  A
O1013     Ni1017   1.928       .  S
O1013     Ni1035   1.907       .  S
O1013     Ni1029   1.963       .  S
O1013      H1036   0.966       .  S
C1014      O1031   1.264       .  A
C1014      O1023   1.282       .  A
C1014      C1709   1.442       .  S
O1015     Ni1034   1.921       .  S
O1015      C1021   1.273       .  A
O1016     Ni1034   1.938       .  S
O1016      C1018   1.272       .  A
Ni1017     O1020   1.883       .  S
Ni1017     O1022   1.897       .  S
C1018      O1028   1.276       .  A
C1018      C1734   1.481       .  S
O1019     Ni1035   2.014       .  S
O1019      C1025   1.303       .  A
O1020      C1025   1.268       .  A
C1021      C1716   1.498       .  S
O1022      C1024   1.255       .  A
O1023     Ni1034   1.967       .  S
C1024      O1030   1.272       .  A
C1024      C1711   1.445       .  S
C1025      C1735   1.460       .  S
H1026      O1027   0.965       .  S
O1027     Ni1035   1.979       .  S
O1027     Ni1029   1.888       .  S
O1027     Ni1034   1.927       .  S
O1028     Ni1029   1.971       .  S
Ni1029     O1033   1.909       .  S
Ni1029     O1031   1.892       .  S
O1030     Ni1035   1.963       .  S
C1032      O1033   1.244       .  A
C1032      C1713   1.397       .  S
C1037      C1038   1.555       .  S
C1037      C1043   1.544       .  S
C1037      C1041   1.564       .  S
C1037      C1719   1.545       .  S
C1038      H1045   1.086       .  S
C1038      C1039   1.372       .  D
C1039      C1040   1.529       .  S
C1039      C1756   1.456       .  S
C1040      C2836   1.523       .  S
C1040      C1042   1.529       .  S
C1040      H2838   1.113       .  S
C1041      H1047   1.082       .  S
C1041      C1042   1.371       .  D
C1042      C3569   1.459       .  S
C1043      H1048   1.087       .  S
C1043      C2836   1.356       .  D
C1044      C2832   1.523       .  S
C1044      C2835   1.356   1_455  D
C1044      C1726   1.432       .  S
H1046      C2832   1.113       .  S
C1049      C1050   1.564       .  S
C1049      C1055   1.543       .  S
C1049      C1053   1.555       .  S
C1049      C1700   1.542       .  S
C1050      H1057   1.081       .  S
C1050      C1051   1.368       .  D
C1051      C1052   1.525       .  S
C1051      C1696   1.452       .  S
C1052      C1056   1.523       .  S
C1052      C1054   1.528       .  S
C1052      H1058   1.113       .  S
C1053      H1059   1.086       .  S
C1053      C1054   1.373       .  D
C1054      C1693   1.452       .  S
C1055      H1060   1.087       .  S
C1055      C1056   1.354       .  D
C1056      C1697   1.433       .  S
O1061     Ni1067   1.915       .  S
O1061      C1082   1.274       .  A
O1062     Ni1085   1.907   1_556  S
O1062      C1071   1.244       .  A
O1063     Ni1067   1.935       .  S
O1063     Ni1085   1.886       .  S
O1063     Ni1079   1.983       .  S
O1063      H1086   0.965       .  S
C1064      O1081   1.302       .  A
C1064      O1073   1.271       .  A
C1064      C1685   1.459       .  S
O1065     Ni1084   1.889   1_556  S
O1065      C1071   1.246       .  A
O1066     Ni1084   1.890       .  S
O1066      C1068   1.254       .  A
Ni1067     O1070   1.974       .  S
Ni1067     O1072   1.931       .  S
C1068      O1078   1.274       .  A
C1068      C1692   1.444   1_554  S
O1069     Ni1085   1.889   1_556  S
O1069      C1075   1.262   1_556  A
O1070      C1075   1.283       .  A
C1071      C1687   1.389       .  S
O1072      C1074   1.269       .  A
O1073     Ni1084   1.888       .  S
C1074      O1080   1.277       .  A
C1074      C1684   1.475       .  S
C1075      C1689   1.447   1_554  S
H1076      O1077   0.966       .  S
O1077     Ni1085   1.958       .  S
O1077     Ni1079   1.906       .  S
O1077     Ni1084   1.920       .  S
O1078     Ni1079   1.967       .  S
Ni1079     O1083   1.929       .  S
Ni1079     O1081   2.010       .  S
O1080     Ni1085   1.973       .  S
C1082      O1083   1.283       .  A
C1082      C1703   1.494       .  S
C1087      C1088   1.566       .  S
C1087      C1093   1.545       .  S
C1087      C1091   1.556       .  S
C1087      C1674   1.548       .  S
C1088      C1089   1.368       .  D
C1089      C1090   1.522       .  S
C1089      C1669   1.454       .  S
C1090      C1094   1.521       .  S
C1090      C1092   1.524       .  S
C1090      H1096   1.113       .  S
C1091      H1097   1.086       .  S
C1091      C1092   1.374       .  D
C1092      C1671   1.450       .  S
C1093      H1098   1.086       .  S
C1093      C1094   1.358       .  D
C1094      C1698   1.433       .  S
O1099      C1120   1.274   1_545  A
O1100     Ni1123   1.908   1_556  S
O1100      C2901   1.242   1_545  A
O1101     Ni1123   1.884       .  S
O1101     Ni1117   1.979   1_545  S
O1101      H1124   0.965   1_545  S
C1102      O2911   1.299   1_455  A
C1102      O1111   1.271       .  A
C1102      C1686   1.460       .  S
O1103     Ni1122   1.887   1_656  S
O1103      C1109   1.247   1_655  A
O1104     Ni2914   1.893       .  S
O1104      C1106   1.256       .  A
Ni1105     O1108   1.976       .  S
Ni1105     O1110   1.930       .  S
C1106      O1116   1.273       .  A
C1106      C1665   1.443   1_554  S
O1107      C1113   1.263       .  A
O1108      C1113   1.284       .  A
C1109      O2892   1.242   1_465  A
C1109      C1664   1.396       .  S
O1110      C1112   1.269       .  A
O1111     Ni1122   1.892       .  S
C1112      O1118   1.276       .  A
C1112      C3475   1.475       .  S
C1113      C1667   1.447   1_554  S
H1114      O2907   0.966   1_455  S
O1115     Ni1123   1.965   1_565  S
O1115     Ni1117   1.908       .  S
O1115     Ni2914   1.925       .  S
O1115      H2906   0.966       .  S
O1116     Ni1117   1.960       .  S
Ni1117     O1121   1.926       .  S
Ni1117     O1119   2.004       .  S
O1119      C2894   1.299       .  A
C1120      O1121   1.281       .  A
C1120      C1677   1.497       .  S
Ni1122     O2896   1.893   1_455  S
Ni1122     O2907   1.925   1_455  S
O1125     Ni1131   1.895       .  S
O1125      C1146   1.244       .  A
O1126      C1135   1.281   1_545  A
O1127     Ni1131   1.912       .  S
O1127     Ni1149   1.896       .  S
O1127     Ni1143   1.944       .  S
O1127      H1150   0.966       .  S
C1128      O1145   1.265       .  A
C1128      O1137   1.285       .  A
C1128      C1750   1.454       .  S
O1129     Ni1148   1.924       .  S
O1129      C1135   1.276       .  A
O1130      C1132   1.269       .  A
Ni1131     O1134   1.887       .  S
Ni1131     O1136   1.886       .  S
C1132      O1142   1.276       .  A
C1132      C1650   1.472       .  S
O1133     Ni1149   2.017       .  S
O1133      C1139   1.306       .  A
O1134      C1139   1.274       .  A
C1135      C1657   1.492       .  S
O1137     Ni1148   1.978       .  S
C1138      O1144   1.273       .  A
C1138      C1747   1.448       .  S
C1139      C1651   1.462       .  S
H1140      O1141   0.965       .  S
O1141     Ni1148   1.931       .  S
O1142     Ni1143   1.965       .  S
Ni1143     O1147   1.911       .  S
C1146      O1147   1.254       .  A
C1146      C1771   1.392       .  S
C1151      C1152   1.554       .  S
C1151      C1157   1.544       .  S
C1151      C1155   1.564       .  S
C1151      C1654   1.540       .  S
C1152      C1153   1.372       .  D
C1153      C1154   1.528       .  S
C1153      C1670   1.453       .  S
C1154      C1158   1.522       .  S
C1154      C1156   1.525       .  S
C1154      H1160   1.113       .  S
C1155      H1161   1.081       .  S
C1155      C1156   1.367       .  D
C1156      C1694   1.453       .  S
C1157      H1162   1.087       .  S
C1157      C1158   1.355       .  D
C1158      C1647   1.429       .  S
O1163     Ni1169   1.883       .  S
O1163      C1184   1.247       .  A
O1164     Ni1187   1.930       .  S
O1164      C1173   1.280       .  A
O1165     Ni1169   1.926       .  S
O1165     Ni1187   1.902       .  S
O1165     Ni1181   1.968       .  S
O1165      H1188   0.966       .  S
C1166      O2975   1.263       .  A
C1166      O1175   1.284       .  A
C1166      C1776   1.449       .  S
O1167     Ni1186   1.914       .  S
O1167      C1173   1.273       .  A
O1168     Ni1186   1.932       .  S
O1168      C1170   1.268       .  A
Ni1169     O1172   1.889       .  S
Ni1169     O1174   1.897       .  S
C1170      O1180   1.273       .  A
C1170      C3441   1.473       .  S
O1171     Ni1187   2.006       .  S
O1171      C1177   1.299       .  A
O1172      C1177   1.268       .  A
C1173      C1638   1.490       .  S
O1174      C1176   1.258       .  A
O1175     Ni2978   1.977       .  S
C1176      O1182   1.278       .  A
C1176      C1774   1.450       .  S
C1177      C1652   1.460       .  S
H1178      O1179   0.966       .  S
O1179     Ni1187   1.983       .  S
O1179     Ni1181   1.883       .  S
O1179     Ni1186   1.933       .  S
O1180     Ni1181   1.967       .  S
Ni1181     O1185   1.906       .  S
Ni1181     O1183   1.891       .  S
O1182     Ni1187   1.970       .  S
O1183      C2958   1.263       .  A
C1184      O1185   1.240       .  A
C1184      C1752   1.402       .  S
Ni1186     O2967   1.977       .  S
C1189      C1190   1.553       .  S
C1189      C1195   1.542       .  S
C1189      C1193   1.561       .  S
C1189      C1641   1.538       .  S
C1190      H1197   1.086       .  S
C1190      C1191   1.371       .  D
C1191      C1192   1.529       .  S
C1191      C1695   1.451       .  S
C1192      C1196   1.524       .  S
C1192      C1194   1.529       .  S
C1192      H1198   1.113       .  S
C1193      H1199   1.081       .  S
C1193      C1194   1.366       .  D
C1194      C1672   1.453       .  S
C1195      H1200   1.087       .  S
C1195      C1196   1.354       .  D
C1196      C1648   1.430       .  S
C1201      C1202   1.553       .  S
C1201      C1207   1.548       .  S
C1201      C1205   1.562       .  S
C1201      C1628   1.543       .  S
C1202      H1209   1.086       .  S
C1202      C1203   1.371       .  D
C1203      C1204   1.528       .  S
C1203      C1622   1.451       .  S
C1204      C1208   1.523       .  S
C1204      C1206   1.527       .  S
C1204      H1210   1.113       .  S
C1205      H1211   1.082       .  S
C1205      C1206   1.367       .  D
C1206      C1624   1.453       .  S
C1207      H1212   1.086       .  S
C1207      C1208   1.359       .  D
C1208      C1626   1.436       .  S
O1213     Ni1219   1.890   1_655  S
O1213      C1234   1.247   1_655  A
O1214     Ni1237   1.920       .  S
O1214      C1223   1.278       .  A
O1215     Ni3011   1.919       .  S
O1215     Ni1237   1.903       .  S
O1215     Ni1231   1.958       .  S
O1215      H3030   0.966       .  S
C1216      O1233   1.264       .  A
C1216      O1225   1.284       .  A
C1216      C1666   1.447       .  S
O1217     Ni1236   1.928       .  S
O1217      C1223   1.275       .  A
O1218     Ni1236   1.927       .  S
O1218      C1220   1.269       .  A
Ni1219     O1222   1.891       .  S
Ni1219     O3016   1.892   1_455  S
Ni1219     O3007   1.919   1_455  S
C1220      O1230   1.277       .  A
C1220      C3409   1.473       .  S
O1221     Ni1237   2.002       .  S
O1221      C3019   1.299       .  A
O1222      C1227   1.271       .  A
C1223      C1631   1.493       .  S
O1224     Ni3011   1.892       .  S
O1224      C1226   1.254       .  A
O1225     Ni1236   1.975       .  S
C1226      O1232   1.273       .  A
C1226      C1668   1.444       .  S
C1227      O3013   1.299   1_455  A
C1227      C1619   1.456       .  S
H1228      O1229   0.965       .  S
O1229     Ni1237   1.975       .  S
O1229     Ni1231   1.888       .  S
O1229     Ni1236   1.929       .  S
O1230     Ni1231   1.971       .  S
Ni1231     O1235   1.909       .  S
Ni1231     O1233   1.891       .  S
O1232     Ni1237   1.964       .  S
C1234      O3027   1.245   1_455  A
C1234      C1688   1.390       .  S
O1235      C3026   1.245       .  A
H1238      O3007   0.966   1_455  S
C1239      C1243   1.564   1_545  S
C1239      C1608   1.540   1_545  S
C1240      H1247   1.086       .  S
C1240      C1241   1.370       .  D
C1241      C1242   1.528       .  S
C1241      C1606   1.452       .  S
C1242      C1246   1.524       .  S
C1242      H1248   1.113       .  S
C1243      H1249   1.082       .  S
C1243      C1244   1.369   1_565  D
C1244      C1604   1.455   1_545  S
C1245      H1250   1.087       .  S
C1245      C1246   1.357       .  D
C1246      C1625   1.436       .  S
O1251     Ni1257   1.889       .  S
O1252     Ni1275   1.922       .  S
O1253     Ni1257   1.917       .  S
O1253     Ni1275   1.903       .  S
C1254      O1271   1.265       .  A
C1254      O1263   1.283       .  A
C1254      C1691   1.447       .  S
O1255     Ni1274   1.915       .  S
O1255      C1261   1.273       .  A
O1256     Ni1274   1.925       .  S
O1256      C1258   1.268       .  A
Ni1257     O1260   1.884       .  S
Ni1257     O1262   1.893       .  S
C1258      O1268   1.277       .  A
C1258      C1618   1.472       .  S
O1259     Ni1275   2.009       .  S
O1259      C1265   1.302       .  A
O1260      C1265   1.271       .  A
C1261      C1611   1.489       .  S
O1262      C1264   1.252       .  A
O1263     Ni1274   1.969       .  S
C1264      O1270   1.271       .  A
C1264      C1690   1.443       .  S
C1265      C1620   1.455       .  S
H1266      O1267   0.966       .  S
O1267     Ni1269   1.890       .  S
O1267     Ni1274   1.928       .  S
O1268     Ni1269   1.971       .  S
Ni1269     O1273   1.909       .  S
Ni1269     O1271   1.893       .  S
O1270     Ni1275   1.965       .  S
C1272      O1273   1.249       .  A
C1272      C1663   1.393       .  S
O1277     Ni1283   1.917       .  S
O1277      C1298   1.272       .  A
O1278     Ni1301   1.910       .  S
O1278      C1287   1.251       .  A
O1279     Ni1283   1.930       .  S
O1279     Ni1301   1.889       .  S
O1279     Ni1295   1.976       .  S
O1279      H1302   0.966       .  S
C1280      O1297   1.301       .  A
C1280      O1289   1.273       .  A
C1280      C1589   1.452       .  S
O1281     Ni1300   1.894       .  S
O1281      C1287   1.246       .  A
O1282     Ni1300   1.890       .  S
O1282      C1284   1.251       .  A
Ni1283     O3078   1.965       .  S
Ni1283     O1288   1.929       .  S
C1284      O1294   1.274       .  A
C1284      C1585   1.446       .  S
O1285     Ni1301   1.890       .  S
O1285      C3083   1.264       .  A
O1286     Ni3075   1.965       .  S
O1286      C1291   1.282       .  A
C1287      C1583   1.389       .  S
O1288      C1290   1.270       .  A
O1289     Ni1300   1.887       .  S
C1290      O1296   1.279       .  A
C1290      C3383   1.478       .  S
C1291      O3077   1.264   1_455  A
C1291      C1587   1.442       .  S
H1292      O1293   0.966       .  S
O1293     Ni1301   1.949       .  S
O1293     Ni1295   1.901       .  S
O1293     Ni1300   1.915       .  S
O1294     Ni1295   1.971       .  S
Ni1295     O1299   1.925       .  S
Ni1295     O1297   2.002       .  S
O1296     Ni1301   1.977       .  S
C1298      O1299   1.280       .  A
C1298      C1594   1.491       .  S
C1303      C1307   1.557       .  S
C1303      C1597   1.542       .  S
C1304      H1311   1.082       .  S
C1304      C1305   1.368       .  D
C1305      C1306   1.527       .  S
C1305      C1621   1.451       .  S
C1306      C1310   1.524       .  S
C1306      H1312   1.113       .  S
C1307      H1313   1.086       .  S
C1307      C1308   1.374   1_565  D
C1308      C1603   1.454   1_545  S
C1309      H1314   1.087       .  S
C1309      C1310   1.355       .  D
C1310      C1581   1.437       .  S
O1315     Ni1321   1.915       .  S
O1315      C1336   1.273       .  A
O1316     Ni1339   1.910       .  S
O1316      C1325   1.254       .  A
O1317     Ni1321   1.927       .  S
O1317     Ni1339   1.891       .  S
O1317     Ni1333   1.980       .  S
O1317      H1340   0.966       .  S
C1318      O1335   1.303       .  A
C1318      O1327   1.273       .  A
C1318      C1590   1.453       .  S
O1319     Ni1338   1.893       .  S
O1319      C1325   1.246       .  A
O1320     Ni1338   1.891       .  S
O1320      C1322   1.250       .  A
Ni1321     O1324   1.963       .  S
Ni1321     O1326   1.930       .  S
C1322      O1332   1.272       .  A
C1322      C1565   1.445       .  S
O1323     Ni1339   1.895       .  S
O1323      C1329   1.266       .  A
O1324      C1329   1.281       .  A
C1325      C1569   1.391       .  S
O1326      C1328   1.270       .  A
O1327     Ni1338   1.885       .  S
C1328      O1334   1.279       .  A
C1328      C1592   1.478       .  S
C1329      C1567   1.443       .  S
H1330      O1331   0.966       .  S
O1331     Ni1339   1.947       .  S
O1331     Ni1333   1.900       .  S
O1331     Ni1338   1.910       .  S
O1332     Ni1333   1.972       .  S
Ni1333     O1337   1.925       .  S
Ni1333     O1335   2.007       .  S
O1334     Ni1339   1.974       .  S
C1336      O1337   1.280       .  A
C1336      C1572   1.493       .  S
C1341      C1342   1.565       .  S
C1341      C1347   1.547       .  S
C1341      C1345   1.554       .  S
C1341      C1575   1.545       .  S
C1342      H1349   1.082       .  S
C1342      C1343   1.368       .  D
C1343      C1344   1.524       .  S
C1343      C1605   1.453       .  S
C1344      C1348   1.521       .  S
C1344      C1346   1.526       .  S
C1344      H1350   1.113       .  S
C1345      H1351   1.086       .  S
C1345      C1346   1.372       .  D
C1346      C1623   1.451       .  S
C1347      H1352   1.087       .  S
C1347      C1348   1.359       .  D
C1348      C1582   1.436       .  S
C1353      C1354   1.555       .  S
C1353      C1359   1.545       .  S
C1353      C1357   1.564       .  S
C1353      C1556   1.544       .  S
C1354      H1361   1.086       .  S
C1354      C1355   1.372       .  D
C1355      C1356   1.526       .  S
C1355      C3343   1.452       .  S
C1356      C1360   1.521       .  S
C1356      C1358   1.524       .  S
C1356      H1362   1.113       .  S
C1357      H1363   1.082       .  S
C1357      C1358   1.368       .  D
C1358      C1550   1.451       .  S
C1359      H1364   1.086       .  S
C1359      C1360   1.357       .  D
C1360      C3346   1.433       .  S
O1365     Ni3163   1.889       .  S
O1365      C1386   1.248       .  A
O1366     Ni1389   1.929       .  S
O1366      C1375   1.281       .  A
O1367     Ni3163   1.930       .  S
O1367     Ni1389   1.908       .  S
O1367     Ni1383   1.967       .  S
O1367      H1390   0.965       .  S
C1368      O1385   1.263       .  A
C1368      O1377   1.284       .  A
C1368      C1566   1.448       .  S
O1369     Ni1388   1.918       .  S
O1369      C1375   1.273       .  A
O1370     Ni1388   1.932       .  S
O1370      C1372   1.269       .  A
Ni1371     O3157   1.889       .  S
Ni1371     O1374   1.892   1_655  S
Ni1371     O1376   1.894   1_655  S
Ni1371     O3159   1.930       .  S
C1372      O1382   1.277       .  A
C1372      C1545   1.479       .  S
O1373     Ni3181   1.996   1_455  S
O1373      C1379   1.297       .  A
O1374      C1379   1.270       .  A
C1375      C1559   1.494       .  S
O1376      C1378   1.259       .  A
O1377     Ni1388   1.975       .  S
C1378      O1384   1.273   1_455  A
C1378      C1568   1.438       .  S
C1379      C1547   1.456       .  S
H1380      O1381   0.966       .  S
O1381     Ni1389   1.976       .  S
O1381     Ni1383   1.884       .  S
O1381     Ni1388   1.926       .  S
O1382     Ni1383   1.977       .  S
Ni1383     O1387   1.910       .  S
Ni1383     O1385   1.889       .  S
O1384     Ni3181   1.955       .  S
C1386      O1387   1.240       .  A
C1386      C1584   1.397       .  S
Ni1389     O3165   1.996       .  S
Ni1389     O3176   1.955       .  S
O1391     Ni1397   1.884       .  S
O1391      C1412   1.248       .  A
O1392     Ni1415   1.924       .  S
O1392      C1401   1.278       .  A
O1393     Ni1397   1.927       .  S
O1393     Ni1415   1.902       .  S
O1393     Ni1409   1.967       .  S
O1393      H1416   0.966       .  S
C1394      O1411   1.263       .  A
C1394      O1403   1.285       .  A
C1394      C1586   1.449       .  S
O1395     Ni1414   1.924       .  S
O1395      C1401   1.274       .  A
O1396     Ni1414   1.935       .  S
O1396      C1398   1.270       .  A
Ni1397     O1400   1.888       .  S
Ni1397     O1402   1.899       .  S
C1398      O1408   1.275       .  A
C1398      C1546   1.479       .  S
O1399     Ni1415   2.002       .  S
O1399      C1405   1.297       .  A
O1400      C1405   1.267       .  A
C1401      C1536   1.492       .  S
O1402      C1404   1.260       .  A
O1403     Ni1414   1.978       .  S
C1404      O1410   1.275       .  A
C1404      C1588   1.440       .  S
C1405      C1548   1.455       .  S
H1406      O1407   0.966       .  S
O1407     Ni1415   1.980       .  S
O1407     Ni1409   1.885       .  S
O1407     Ni1414   1.932       .  S
O1408     Ni1409   1.971       .  S
Ni1409     O1413   1.907       .  S
Ni1409     O1411   1.891       .  S
O1410     Ni1415   1.957       .  S
C1412      O1413   1.240       .  A
C1412      C1570   1.402       .  S
C1417      C1418   1.558       .  S
C1417      C1539   1.544       .  S
C1418      H1425   1.085       .  S
C1418      C1419   1.375       .  D
C1419      C1534   1.454       .  S
C1420      C1424   1.522       .  S
C1420      C1422   1.526       .  S
C1420      H1426   1.113       .  S
C1421      H1427   1.082       .  S
C1421      C1422   1.367       .  D
C1422      C1532   1.451       .  S
C1423      H1428   1.087       .  S
C1423      C1424   1.356       .  D
C1424      C1553   1.433       .  S
O1429     Ni1435   1.915       .  S
O1429      C1450   1.273       .  A
O1430     Ni1453   1.910       .  S
O1430      C1439   1.247       .  A
O1431     Ni1435   1.926       .  S
O1431     Ni1453   1.884       .  S
O1431     Ni1447   1.975       .  S
O1431      H1454   0.965       .  S
C1432      O1449   1.298       .  A
C1432      O1441   1.273       .  A
C1432      C1520   1.456       .  S
O1433     Ni1452   1.891       .  S
O1433      C1439   1.247       .  A
O1434     Ni1452   1.890       .  S
O1434      C1436   1.254       .  A
Ni1435     O1438   1.973       .  S
Ni1435     O1440   1.928       .  S
C1436      O1446   1.274       .  A
C1436      C1732   1.442       .  S
O1437     Ni1453   1.892       .  S
O1437      C1443   1.263       .  A
O1438      C1443   1.283       .  A
C1439      C1714   1.391       .  S
O1440      C1442   1.268       .  A
O1441     Ni1452   1.895       .  S
C1442      O1448   1.280       .  A
C1442      C1517   1.480       .  S
C1443      C1730   1.446       .  S
H1444      O1445   0.966       .  S
O1445     Ni1453   1.960       .  S
O1445     Ni1447   1.906       .  S
O1445     Ni1452   1.916       .  S
O1446     Ni1447   1.964       .  S
Ni1447     O1451   1.923       .  S
Ni1447     O1449   1.998       .  S
O1448     Ni1453   1.983       .  S
C1450      O1451   1.278       .  A
C1450      C1522   1.491       .  S
C1455      C1456   1.563       .  S
C1455      C1461   1.545       .  S
C1455      C1459   1.553       .  S
C1455      C1525   1.540       .  S
C1456      H1463   1.081       .  S
C1456      C1457   1.366       .  D
C1457      C1458   1.526       .  S
C1457      C1552   1.453       .  S
C1458      C1462   1.523       .  S
C1458      C1460   1.528       .  S
C1458      H1464   1.113       .  S
C1459      H1465   1.086       .  S
C1459      C1460   1.371       .  D
C1460      C1531   1.450       .  S
C1461      H1466   1.087       .  S
C1461      C1462   1.358       .  D
C1462      C1516   1.435       .  S
O1467     Ni1473   1.913       .  S
O1468     Ni1491   1.909       .  S
O1468      C1477   1.242       .  A
O1469     Ni1473   1.933       .  S
O1469     Ni1491   1.886       .  S
O1469      H1492   0.966       .  S
C1470      O1487   1.299       .  A
C1470      O1479   1.269       .  A
C1470      C1519   1.455       .  S
O1471     Ni1490   1.884       .  S
O1472     Ni1490   1.896       .  S
O1472      C1474   1.258       .  A
Ni1473     O1476   1.970       .  S
Ni1473     O1478   1.936       .  S
C1474      O1484   1.272       .  A
C1474      C1710   1.439       .  S
O1475     Ni1491   1.891       .  S
O1475      C1481   1.263       .  A
O1476      C1481   1.282       .  A
C1477      C1728   1.398       .  S
O1478      C1480   1.271       .  A
O1479     Ni1490   1.886       .  S
C1480      O1486   1.276       .  A
C1480      C1518   1.480       .  S
C1481      C1712   1.446       .  S
H1482      O1483   0.966       .  S
O1483     Ni1485   1.909       .  S
O1483     Ni1490   1.926       .  S
O1484     Ni1485   1.955       .  S
Ni1485     O1489   1.927       .  S
Ni1485     O1487   2.003       .  S
O1486     Ni1491   1.970       .  S
C1488      O1489   1.281       .  A
C1488      C1506   1.494       .  S
C1493      C3291   1.544       .  S
C1493      C1497   1.552       .  S
C1493      C1509   1.541       .  S
C1494      H3293   1.081       .  S
C1494      C3287   1.368   1_565  D
C1495      C3286   1.368   1_445  D
C1495      C1533   1.456   1_545  S
C1496      C1500   1.526       .  S
C1496      C3290   1.529   1_455  S
C1496      H1502   1.113       .  S
C1497      H1503   1.086       .  S
C1497      C1498   1.370       .  D
C1498      C3288   1.529       .  S
C1498      C1549   1.450       .  S
C1499      C3285   1.544       .  S
C1499      H1504   1.087       .  S
C1499      C1500   1.357   1_655  D
C1500      C1515   1.436       .  S
H1501      C3286   1.081       .  S
C1505      C3298   1.408       .  A
C1505      C1510   1.400       .  A
C1505      H1511   1.084       .  S
C1506      C3297   1.408       .  A
C1506      C1507   1.404       .  A
C1507      C1508   1.409       .  A
C1507      H1512   1.082       .  S
C1508      C1509   1.415       .  A
C1508      H1513   1.083       .  S
C1509      C3302   1.409       .  A
C1510      C3301   1.409       .  A
C1510      H1514   1.077       .  S
C1515      C1516   1.202       .  T
C1517      C1518   1.233       .  T
C1519      C1520   1.220       .  T
C1521      C1522   1.406       .  A
C1521      C1526   1.398       .  A
C1521      H1527   1.084       .  S
C1522      C1523   1.405       .  A
C1523      C1524   1.409       .  A
C1523      H1528   1.082       .  S
C1524      C1525   1.415       .  A
C1524      H1529   1.083       .  S
C1525      C1526   1.409       .  A
C1526      H1530   1.076       .  S
C1531      C1532   1.211       .  T
C1533      C1534   1.214       .  T
C1535      C1540   1.404       .  A
C1535      H1541   1.083       .  S
C1536      C1537   1.404       .  A
C1537      C1538   1.407       .  A
C1537      H1542   1.082       .  S
C1538      C1539   1.413       .  A
C1538      H1543   1.083       .  S
C1540      H1544   1.077       .  S
C1545      C1546   1.232       .  T
C1547      C1548   1.221       .  T
C1549      C1550   1.211       .  T
C1551      C3147   1.452       .  S
C1551      C1552   1.213       .  T
C1553      C1554   1.200       .  T
C1554      C3152   1.433       .  S
C1555      C1556   1.410       .  A
C1555      C1560   1.402       .  A
C1555      H1561   1.077       .  S
C1556      C1557   1.415       .  A
C1557      C1558   1.409       .  A
C1557      H3354   1.083       .  S
C1558      C1559   1.404       .  A
C1558      H3355   1.083       .  S
C1559      C1560   1.408       .  A
C1560      H1564   1.083       .  S
H1562      C3349   1.083   1_455  S
H1563      C3350   1.083       .  S
C1565      C1566   1.214       .  T
C1567      C1568   1.210       .  T
C1569      C1570   1.187       .  T
C1571      C1572   1.405       .  A
C1571      C1576   1.410       .  A
C1571      H1577   1.083       .  S
C1572      C1573   1.407       .  A
C1573      C1574   1.401       .  A
C1573      H1578   1.084       .  S
C1574      C1575   1.410       .  A
C1574      H1579   1.077       .  S
C1575      C1576   1.415       .  A
C1576      H1580   1.083       .  S
C1581      C1582   1.202       .  T
C1583      C1584   1.186       .  T
C1585      C1586   1.215       .  T
C1587      C1588   1.211       .  T
C1589      C1590   1.219       .  T
C1591      C3082   1.478       .  S
C1591      C1592   1.231       .  T
C1593      C1594   1.403       .  A
C1593      C1598   1.406       .  A
C1593      H1599   1.082       .  S
C1594      C1595   1.408       .  A
C1595      C1596   1.404       .  A
C1596      C1597   1.411       .  A
C1597      C1598   1.413       .  A
C1598      H1602   1.083       .  S
C1603      C1604   1.214       .  T
C1605      C1606   1.213       .  T
C1607      C1612   1.400       .  A
C1607      H1613   1.077       .  S
C1608      C1609   1.415   1_565  A
C1609      C1610   1.407       .  A
C1609      H1614   1.083       .  S
C1610      C1611   1.404   1_545  A
C1610      H1615   1.082       .  S
C1612      H1616   1.084       .  S
C1617      C3012   1.473       .  S
C1617      C1618   1.228       .  T
C1619      C1620   1.221       .  T
C1621      C1622   1.212       .  T
C1623      C1624   1.212       .  T
C1625      C1626   1.202       .  T
C1627      C1628   1.413       .  A
C1627      C1632   1.407       .  A
C1627      H1633   1.083       .  S
C1628      C1629   1.411       .  A
C1629      C1630   1.403       .  A
C1629      H1634   1.077       .  S
C1630      C1631   1.407       .  A
C1630      H1635   1.083       .  S
C1631      C1632   1.405       .  A
C1632      H1636   1.081       .  S
C1637      C1638   1.404       .  A
C1637      C1642   1.406       .  A
C1637      H1643   1.083       .  S
C1638      C1639   1.407       .  A
C1639      C1640   1.399       .  A
C1639      H1644   1.083       .  S
C1640      C1641   1.409       .  A
C1640      H1645   1.077       .  S
C1641      C1642   1.414       .  A
C1642      H1646   1.083       .  S
C1647      C1648   1.198       .  T
C1649      C2962   1.473       .  S
C1649      C1650   1.228       .  T
C1651      C1652   1.224       .  T
C1653      C1654   1.414       .  A
C1653      C1658   1.407   1_565  A
C1653      H1659   1.083       .  S
C1654      C1655   1.409       .  A
C1655      C1656   1.401       .  A
C1656      C1657   1.407       .  A
C1657      C1658   1.404   1_565  A
C1658      H1662   1.083       .  S
C1663      C1664   1.186       .  T
C1665      C1666   1.213       .  T
C1667      C1668   1.214       .  T
C1669      C1670   1.213       .  T
C1671      C1672   1.212       .  T
C1673      C1674   1.410       .  A
C1673      C1678   1.401   1_565  A
C1674      C1675   1.416       .  A
C1675      C1676   1.412       .  A
C1675      H1680   1.083       .  S
C1676      C1677   1.406       .  A
C1676      H1681   1.082       .  S
C1677      C1678   1.407   1_565  A
C1683      C2904   1.475       .  S
C1683      C1684   1.230       .  T
C1685      C1686   1.223       .  T
C1687      C1688   1.183       .  T
C1689      C1690   1.213       .  T
C1691      C1692   1.213       .  T
C1693      C1694   1.212       .  T
C1695      C1696   1.212       .  T
C1697      C1698   1.200       .  T
C1699      C1700   1.410       .  A
C1699      C1704   1.401       .  A
C1699      H1705   1.077       .  S
C1700      C1701   1.415       .  A
C1701      C1702   1.409       .  A
C1701      H1706   1.083       .  S
C1702      C1703   1.404       .  A
C1702      H1707   1.083       .  S
C1703      C1704   1.408       .  A
C1704      H1708   1.083       .  S
C1709      C1710   1.210       .  T
C1711      C1712   1.213       .  T
C1713      C1714   1.186       .  T
C1715      C1716   1.410       .  A
C1715      C1720   1.405       .  A
C1715      H3513   1.083       .  S
C1716      C1717   1.404       .  A
C1717      C1718   1.408       .  A
C1717      H1722   1.082       .  S
C1718      C1719   1.414       .  A
C1718      H1723   1.083       .  S
C1719      C1720   1.411       .  A
C1720      H3516   1.078       .  S
H1721      C3507   1.083       .  S
H1724      C3512   1.078       .  S
C1725      C1726   1.200       .  T
C1727      C1728   1.187       .  T
C1729      C1730   1.213       .  T
C1731      C1732   1.213       .  T
C1733      C1734   1.233       .  T
C1735      C1736   1.224       .  T
C1737      C1738   1.404       .  A
C1737      C1742   1.407       .  A
C1737      H1743   1.082       .  S
C1738      C1739   1.407   1_565  A
C1739      C1740   1.403   1_545  A
C1739      H1744   1.083       .  S
C1740      C1741   1.411       .  A
C1740      H1745   1.077   1_565  S
C1741      C1742   1.414       .  A
C1742      H1746   1.083       .  S
C1747      C1748   1.216       .  T
C1749      C1750   1.218       .  T
C1751      C1752   1.187       .  T
C1753      C2732   1.450       .  S
C1753      C1754   1.212       .  T
C1755      C1756   1.215       .  T
C1757      C1758   1.416       .  A
C1757      C1762   1.410   1_565  A
C1757      H3555   1.083       .  S
C1758      C1759   1.409       .  A
C1759      C1760   1.403       .  A
C1759      H1764   1.077       .  S
C1760      C1761   1.409       .  A
C1760      H1765   1.083       .  S
C1761      C1762   1.405   1_565  A
C1762      H3558   1.083       .  S
H1763      C3549   1.083   1_455  S
H1766      C3554   1.083       .  S
C1767      C1768   1.232       .  T
C1769      C1770   1.223       .  T
C1771      C1772   1.188       .  T
C1773      C1774   1.217       .  T
C1775      C1776   1.215       .  T
C1777      C2834   1.459       .  S
C1777      C1778   1.216       .  T
C1779      C1780   1.217       .  T
C1781      C1782   1.199       .  T
C1782      C2734   1.431       .  S
C1783      C1784   1.417       .  A
C1783      C1788   1.413       .  A
C1783      H1789   1.083       .  S
C1784      C1785   1.410       .  A
C1785      C1786   1.404       .  A
C1785      H1790   1.077       .  S
C1786      C1787   1.410       .  A
C1786      H1791   1.083       .  S
C1787      C1788   1.405       .  A
C1788      H1792   1.083       .  S
C1793      C1794   1.569       .  S
C1793      C1799   1.542       .  S
C1793      C1797   1.559       .  S
C1793      C2680   1.550       .  S
C1794      H1801   1.082       .  S
C1794      C1795   1.373       .  D
C1795      C1796   1.523       .  S
C1795      C2675   1.459       .  S
C1796      C1800   1.521       .  S
C1796      C1798   1.525       .  S
C1796      H1802   1.113       .  S
C1797      H1803   1.085       .  S
C1797      C1798   1.375       .  D
C1798      C2674   1.456       .  S
C1799      H1804   1.087       .  S
C1799      C1800   1.356       .  D
C1800      C2677   1.430       .  S
O1805     Ni1811   1.916       .  S
O1805      C1826   1.274       .  A
O1806     Ni1829   1.905       .  S
O1806      C1815   1.238       .  A
O1807     Ni1811   1.936       .  S
O1807     Ni1829   1.881       .  S
O1807     Ni1823   1.985       .  S
O1807      H1830   0.966       .  S
C1808      O1825   1.298       .  A
C1808      O1817   1.270       .  A
C1808      C2666   1.462       .  S
O1809     Ni1828   1.886       .  S
O1809      C1815   1.247       .  A
O1810     Ni1828   1.892       .  S
O1810      C1812   1.258       .  A
Ni1811     O1814   1.980       .  S
Ni1811     O1816   1.936       .  S
C1812      O1822   1.278       .  A
C1812      C2671   1.446       .  S
O1813     Ni1829   1.893       .  S
O1813      C1819   1.262       .  A
O1814      C1819   1.284       .  A
C1815      C2668   1.403       .  S
O1816      C1818   1.270       .  A
O1817     Ni1828   1.892       .  S
C1818      O1824   1.274       .  A
C1818      C2663   1.478       .  S
C1819      C2669   1.453       .  S
H1820      O1821   0.966       .  S
O1821     Ni1829   1.974       .  S
O1821     Ni1823   1.905       .  S
O1821     Ni1828   1.936       .  S
O1822     Ni1823   1.968       .  S
Ni1823     O1827   1.939       .  S
Ni1823     O1825   2.002       .  S
O1824     Ni1829   1.967       .  S
C1826      O1827   1.284       .  A
C1826      C2683   1.500       .  S
C1831      C1832   1.567       .  S
C1831      C1837   1.542   1_655  S
C1831      C1835   1.555   1_655  S
C1831      C2654   1.544       .  S
C1832      H1839   1.082       .  S
C1832      C1833   1.371       .  D
C1833      C1834   1.525   1_655  S
C1833      C2651   1.456       .  S
C1834      C1838   1.522       .  S
C1834      C1836   1.527       .  S
C1834      H1840   1.113       .  S
C1835      H2737   1.086       .  S
C1835      C1836   1.372       .  D
C1837      H1842   1.087       .  S
C1837      C1838   1.354       .  D
H1841      C2731   1.086       .  S
O1843     Ni1849   1.920       .  S
O1843      C1864   1.274       .  A
O1844     Ni1867   1.911   1_545  S
O1844      C1853   1.254       .  A
O1845     Ni1849   1.931       .  S
O1845     Ni2763   1.895       .  S
O1845     Ni2757   1.986       .  S
O1845      H1868   0.966       .  S
C1846      O1863   1.307       .  A
C1846      O1855   1.273       .  A
C1846      C2665   1.459       .  S
O1847      C1853   1.243       .  A
O1848     Ni1866   1.890       .  S
O1848      C2746   1.250   1_545  A
Ni1849     O1852   1.970       .  S
Ni1849     O2750   1.932       .  S
C1850      O2744   1.250       .  A
C1850      O1860   1.274       .  A
C1850      C2645   1.452       .  S
O1851     Ni2763   1.896       .  S
O1851      C1857   1.265       .  A
O1852      C1857   1.283       .  A
C1853      C2647   1.390       .  S
O1854     Ni2745   1.932   1_545  S
O1854      C1856   1.270       .  A
O1855     Ni1866   1.885       .  S
C1856      O1862   1.278       .  A
C1856      C2664   1.479       .  S
C1857      C2644   1.451       .  S
H1858      O1859   0.966       .  S
O1859     Ni1867   1.943   1_545  S
O1859     Ni1861   1.899   1_545  S
Ni1861     O2761   1.930   1_565  S
Ni1861     O2741   1.986       .  S
O1862     Ni1867   1.971   1_545  S
C1864      O1865   1.282       .  A
C1864      C2657   1.497       .  S
O1865     Ni2757   1.930       .  S
Ni1867     O2747   1.896       .  S
Ni1867     O2741   1.895       .  S
O1869     Ni1875   1.889       .  S
O1869      C1890   1.246       .  A
O1870     Ni1893   1.922       .  S
O1870      C1879   1.279       .  A
O1871     Ni1875   1.919       .  S
O1871     Ni1893   1.903       .  S
O1871     Ni1887   1.954       .  S
O1871      H1894   0.966       .  S
C1872      O1889   1.265       .  A
C1872      O1881   1.284       .  A
C1872      C2627   1.446       .  S
O1873     Ni2788   1.923       .  S
O1873      C1879   1.274       .  A
O1874     Ni1892   1.932       .  S
O1874      C1876   1.270       .  A
Ni1875     O1878   1.886       .  S
Ni1875     O1880   1.892       .  S
C1876      O1886   1.279       .  A
C1876      C2629   1.481       .  S
O1877     Ni1893   2.014       .  S
O1877      C1883   1.304       .  A
O1878      C1883   1.271       .  A
C1879      C2634   1.493       .  S
O1880      C1882   1.252       .  A
O1881     Ni1892   1.971       .  S
C1882      O1888   1.270       .  A
C1882      C2625   1.443       .  S
C1883      C2632   1.461       .  S
H1884      O1885   0.965       .  S
O1885     Ni1893   1.975       .  S
O1885     Ni1887   1.891       .  S
O1885     Ni2788   1.926       .  S
O1886     Ni2783   1.975       .  S
Ni1887     O2782   1.975       .  S
Ni1887     O1891   1.911       .  S
Ni1887     O2785   1.893       .  S
O1888     Ni1893   1.964       .  S
O1889     Ni2783   1.893       .  S
C1890      O1891   1.249       .  A
C1890      C2623   1.395       .  S
Ni1892     O2769   1.923       .  S
Ni1892     O2781   1.926   1_545  S
C1895      C1896   1.557       .  S
C1895      C1901   1.545       .  S
C1895      C1899   1.562       .  S
C1895      C2637   1.545       .  S
C1896      H1903   1.085       .  S
C1896      C1897   1.374       .  D
C1897      C1898   1.528       .  S
C1897      C2676   1.458       .  S
C1898      C1902   1.524       .  S
C1898      C1900   1.527       .  S
C1898      H1904   1.113       .  S
C1899      H2801   1.081       .  S
C1899      C1900   1.367       .  D
C1900      C2650   1.452       .  S
C1901      H1906   1.087       .  S
C1901      C1902   1.356       .  D
C1902      C2621   1.432       .  S
H1905      C2795   1.081       .  S
O1907     Ni1913   1.884       .  S
O1907      C1928   1.247       .  A
O1908     Ni1931   1.930       .  S
O1908      C1917   1.282       .  A
O1909     Ni1913   1.928       .  S
O1909     Ni1931   1.907       .  S
O1909     Ni1925   1.963       .  S
O1909      H1932   0.966       .  S
C1910      O1927   1.264       .  A
C1910      O1919   1.282       .  A
C1910      C2605   1.442       .  S
O1911     Ni1930   1.921       .  S
O1911      C1917   1.273       .  A
O1912     Ni1930   1.938       .  S
O1912      C1914   1.272       .  A
Ni1913     O1916   1.883       .  S
Ni1913     O1918   1.896       .  S
C1914      O1924   1.276       .  A
C1914      C2630   1.481       .  S
O1915     Ni1931   2.014       .  S
O1915      C1921   1.303       .  A
O1916      C1921   1.268       .  A
C1917      C2612   1.498       .  S
O1918      C1920   1.255       .  A
O1919     Ni1930   1.967       .  S
C1920      O1926   1.272       .  A
C1920      C2607   1.445       .  S
C1921      C2631   1.461       .  S
H1922      O1923   0.965       .  S
O1923     Ni1931   1.979       .  S
O1923     Ni1925   1.888       .  S
O1923     Ni1930   1.927       .  S
O1924     Ni1925   1.971       .  S
Ni1925     O1929   1.909       .  S
Ni1925     O1927   1.892       .  S
O1926     Ni1931   1.963       .  S
C1928      O1929   1.244       .  A
C1928      C2609   1.397       .  S
C1933      C1934   1.555       .  S
C1933      C1939   1.544       .  S
C1933      C1937   1.564       .  S
C1933      C2615   1.545       .  S
C1934      H1941   1.086       .  S
C1934      C1935   1.372       .  D
C1935      C1936   1.529   1_655  S
C1935      C2652   1.456       .  S
C1936      C1938   1.529       .  S
C1937      H1943   1.082       .  S
C1937      C1938   1.371   1_655  D
C1939      H1944   1.087       .  S
C1940      C2622   1.432       .  S
C1945      C1946   1.564       .  S
C1945      C1951   1.543       .  S
C1945      C1949   1.555       .  S
C1945      C2596   1.542       .  S
C1946      H1953   1.081       .  S
C1946      C1947   1.368       .  D
C1947      C1948   1.525       .  S
C1947      C2592   1.452       .  S
C1948      C1952   1.523       .  S
C1948      C1950   1.528       .  S
C1948      H1954   1.113       .  S
C1949      H1955   1.086       .  S
C1949      C1950   1.373       .  D
C1950      C2589   1.452       .  S
C1951      H1956   1.087       .  S
C1951      C1952   1.354       .  D
C1952      C2593   1.433       .  S
O1957     Ni1963   1.915       .  S
O1957      C1978   1.274       .  A
O1958     Ni1981   1.907   1_556  S
O1958      C1967   1.244       .  A
O1959     Ni1963   1.936       .  S
O1959     Ni1981   1.886       .  S
O1959     Ni1975   1.983       .  S
O1959      H1982   0.965       .  S
C1960      O1977   1.303       .  A
C1960      O1969   1.271       .  A
C1960      C2581   1.459       .  S
O1961     Ni1980   1.889   1_556  S
O1961      C1967   1.246       .  A
O1962     Ni1980   1.890       .  S
O1962      C1964   1.254       .  A
Ni1963     O1966   1.974       .  S
Ni1963     O1968   1.930       .  S
C1964      O1974   1.274       .  A
C1964      C2588   1.444   1_554  S
O1965     Ni1981   1.889   1_556  S
O1965      C1971   1.262   1_556  A
O1966      C1971   1.283       .  A
C1967      C2583   1.389       .  S
O1968      C1970   1.269       .  A
O1969     Ni1980   1.888       .  S
C1970      O1976   1.277       .  A
C1970      C2580   1.475       .  S
C1971      C2585   1.447   1_554  S
H1972      O1973   0.966       .  S
O1973     Ni1981   1.958       .  S
O1973     Ni1975   1.906       .  S
O1973     Ni1980   1.920       .  S
O1974     Ni1975   1.966       .  S
Ni1975     O1979   1.929       .  S
Ni1975     O1977   2.010       .  S
O1976     Ni1981   1.973       .  S
C1978      O1979   1.283       .  A
C1978      C2599   1.494       .  S
C1983      C1984   1.566       .  S
C1983      C1989   1.545       .  S
C1983      C1987   1.556       .  S
C1983      C2570   1.548       .  S
C1984      H2887   1.081       .  S
C1984      C1985   1.368       .  D
C1985      C1986   1.522       .  S
C1985      C2565   1.454       .  S
C1986      C1990   1.521       .  S
C1986      C1988   1.524       .  S
C1986      H1992   1.113       .  S
C1987      H1993   1.086       .  S
C1987      C1988   1.374       .  D
C1988      C2567   1.450       .  S
C1989      H1994   1.086       .  S
C1989      C1990   1.358       .  D
C1990      C2594   1.433       .  S
H1991      C2880   1.081       .  S
O1995     Ni2897   1.920       .  S
O1995      C2016   1.274       .  A
O1996     Ni2019   1.908   1_556  S
O1997     Ni2897   1.930       .  S
O1997     Ni2019   1.884       .  S
O1997     Ni2013   1.979       .  S
O1997      H2020   0.965       .  S
C1998      O2007   1.271       .  A
C1998      C2582   1.460       .  S
O1999     Ni2018   1.887   1_556  S
O1999      C2005   1.247       .  A
O2000      C2002   1.256       .  A
Ni2001     O2891   1.920       .  S
Ni2001     O2004   1.976       .  S
Ni2001     O2006   1.930       .  S
Ni2001     O2893   1.930       .  S
C2002      O2012   1.273       .  A
C2002      C2561   1.443   1_554  S
O2003     Ni2915   1.891       .  S
O2003      C2009   1.263       .  A
O2004      C2009   1.284       .  A
C2005      C2560   1.396       .  S
O2006      C2008   1.269   1_655  A
O2007     Ni2018   1.892       .  S
C2008      O2014   1.276   1_455  A
C2009      C2563   1.448   1_554  S
O2011     Ni2019   1.965       .  S
O2011     Ni2013   1.908       .  S
O2012     Ni2013   1.960       .  S
Ni2013     O2017   1.926       .  S
Ni2013     O2015   2.004       .  S
O2014     Ni2915   1.971       .  S
C2016      O2017   1.281       .  A
C2016      C2573   1.497       .  S
Ni2019     O2899   1.890       .  S
Ni2019     O2910   1.972       .  S
O2021     Ni2027   1.895       .  S
O2021      C2042   1.244       .  A
O2022     Ni2941   1.927       .  S
O2022      C2031   1.281       .  A
O2023     Ni2027   1.912       .  S
O2023     Ni2045   1.896   1_545  S
O2023     Ni2039   1.944   1_545  S
O2023      H2046   0.966       .  S
C2024      O2041   1.265       .  A
C2024      O2033   1.285       .  A
C2024      C2646   1.454       .  S
O2025     Ni2044   1.924       .  S
O2025      C2031   1.276       .  A
O2026     Ni2940   1.928   1_545  S
O2026      C2028   1.269       .  A
Ni2027     O2030   1.887       .  S
Ni2027     O2032   1.886       .  S
C2028      O2038   1.276       .  A
C2028      C2546   1.472       .  S
O2029     Ni2045   2.017   1_545  S
O2029      C2035   1.307       .  A
O2030      C2035   1.274       .  A
C2031      C2553   1.492       .  S
O2032      C2930   1.249   1_545  A
O2033     Ni2044   1.978       .  S
C2034      O2928   1.249       .  A
C2034      O2040   1.273       .  A
C2034      C2643   1.448       .  S
C2035      C2547   1.462       .  S
H2036      O2037   0.965       .  S
O2037     Ni2941   1.982       .  S
O2037     Ni2935   1.893       .  S
O2037     Ni2044   1.931       .  S
O2038     Ni2039   1.965   1_545  S
Ni2039     O2043   1.911   1_565  S
Ni2039     O2937   1.894       .  S
Ni2039     O2933   1.893       .  S
O2040     Ni2941   1.976       .  S
O2041     Ni2935   1.893       .  S
C2042      O2043   1.254       .  A
C2042      C2667   1.392       .  S
Ni2044     O2922   1.928       .  S
Ni2045     O2918   1.927   1_565  S
Ni2045     O2936   1.976       .  S
Ni2045     O2933   1.982       .  S
C2047      C2048   1.554       .  S
C2047      C2053   1.544       .  S
C2047      C2051   1.564       .  S
C2047      C2550   1.540       .  S
C2048      H2951   1.085       .  S
C2048      C2049   1.372       .  D
C2049      C2050   1.528       .  S
C2049      C2566   1.453       .  S
C2050      C2054   1.522       .  S
C2050      C2052   1.525       .  S
C2050      H2056   1.113       .  S
C2051      H2057   1.081       .  S
C2051      C2052   1.367       .  D
C2052      C2590   1.453       .  S
C2053      H2058   1.087       .  S
C2053      C2054   1.355       .  D
C2054      C2543   1.429       .  S
H2055      C2944   1.085       .  S
O2059     Ni2065   1.883       .  S
O2059      C2080   1.247       .  A
O2060     Ni2083   1.930       .  S
O2060      C2069   1.280       .  A
O2061     Ni2065   1.926       .  S
O2061     Ni2083   1.902       .  S
O2061     Ni2077   1.968       .  S
O2061      H2084   0.966       .  S
C2062      O2071   1.284       .  A
C2062      C2672   1.449       .  S
O2063     Ni2082   1.915   1_655  S
O2063      C2069   1.273       .  A
O2064     Ni2082   1.932       .  S
O2064      C2066   1.268       .  A
Ni2065     O2068   1.889       .  S
Ni2065     O2070   1.897       .  S
C2066      O2076   1.273       .  A
O2067     Ni2083   2.006       .  S
O2067      C2073   1.299       .  A
O2068      C2073   1.268       .  A
C2069      C2534   1.490       .  S
O2070      C2072   1.258       .  A
C2072      O2078   1.278       .  A
C2072      C2670   1.450       .  S
C2073      C2548   1.460       .  S
H2074      O2075   0.966       .  S
O2075     Ni2083   1.983       .  S
O2075     Ni2077   1.883       .  S
O2075     Ni2082   1.933   1_655  S
O2076     Ni2077   1.966   1_455  S
Ni2077     O2081   1.906       .  S
Ni2077     O2079   1.891   1_655  S
O2078     Ni2083   1.970       .  S
C2080      O2081   1.240       .  A
C2080      C2648   1.402       .  S
C2085      C2086   1.553       .  S
C2085      C2091   1.542       .  S
C2085      C2089   1.561       .  S
C2085      C2537   1.538       .  S
C2086      H2093   1.086       .  S
C2086      C2087   1.371       .  D
C2087      C2088   1.529       .  S
C2087      C2591   1.451       .  S
C2088      C2092   1.524       .  S
C2088      C2090   1.529       .  S
C2088      H2094   1.113       .  S
C2089      H2095   1.081       .  S
C2089      C2090   1.366       .  D
C2090      C2568   1.453       .  S
C2091      H2096   1.087       .  S
C2091      C2092   1.354       .  D
C2092      C2544   1.430       .  S
C2097      C2098   1.553       .  S
C2097      C2103   1.548       .  S
C2097      C2101   1.562       .  S
C2097      C2524   1.543       .  S
C2098      H2105   1.086       .  S
C2098      C2099   1.371       .  D
C2099      C2100   1.528       .  S
C2099      C2518   1.451       .  S
C2100      C2104   1.523       .  S
C2100      C2102   1.527       .  S
C2100      H2106   1.113       .  S
C2101      H2107   1.082       .  S
C2101      C2102   1.367       .  D
C2102      C2520   1.453       .  S
C2103      H2108   1.086       .  S
C2103      C2104   1.359       .  D
C2104      C2522   1.436       .  S
O2109     Ni2115   1.890       .  S
O2109      C2130   1.247       .  A
O2110     Ni2133   1.920       .  S
O2110      C2119   1.277       .  A
O2111     Ni2133   1.903       .  S
O2111     Ni2127   1.958       .  S
C2112      O2129   1.264       .  A
C2112      O2121   1.284       .  A
C2112      C2562   1.447       .  S
O2113     Ni2132   1.928       .  S
O2113      C2119   1.275       .  A
O2114     Ni2132   1.927       .  S
O2114      C2116   1.269   1_655  A
Ni2115     O2118   1.891       .  S
C2116      O2126   1.277   1_455  A
O2117     Ni2133   2.001       .  S
O2118      C2123   1.271       .  A
C2119      C2527   1.494       .  S
O2120      C2122   1.254       .  A
O2121     Ni2132   1.975       .  S
C2122      O2128   1.273       .  A
C2122      C2564   1.444       .  S
C2123      C2515   1.456       .  S
H2124      O2125   0.965       .  S
O2125     Ni2133   1.975       .  S
O2125     Ni2127   1.888       .  S
O2125     Ni2132   1.929       .  S
O2126     Ni2127   1.971       .  S
Ni2127     O2131   1.909       .  S
Ni2127     O2129   1.891       .  S
O2128     Ni2133   1.964       .  S
C2130      C2584   1.390       .  S
C2135      C3032   1.553       .  S
C2135      C3037   1.545       .  S
C2135      C2139   1.564       .  S
C2135      C2504   1.540       .  S
C2136      C3031   1.553       .  S
C2136      H2143   1.086       .  S
C2136      C2137   1.370       .  D
C2137      C2138   1.528       .  S
C2137      C2502   1.452       .  S
C2138      C2142   1.524       .  S
C2138      C3036   1.526       .  S
C2138      H2144   1.113       .  S
C2139      H2145   1.082       .  S
C2139      C2140   1.369       .  D
C2140      C3034   1.526       .  S
C2140      C2500   1.455       .  S
C2141      C3031   1.545       .  S
C2141      H2146   1.087       .  S
C2141      C2142   1.357       .  D
C2142      C2521   1.436       .  S
O2147     Ni2153   1.889       .  S
O2147      C3064   1.246   1_545  A
O2148     Ni2171   1.922       .  S
O2148      C3053   1.279       .  A
O2149     Ni2153   1.917   1_565  S
O2149     Ni2171   1.903       .  S
O2149     Ni3061   1.952       .  S
O2149      H3068   0.966       .  S
C2150      O2167   1.265       .  A
C2150      O2159   1.283       .  A
C2150      C2587   1.447       .  S
O2151     Ni2170   1.915       .  S
O2151      C2157   1.273       .  A
O2152     Ni2170   1.926       .  S
O2152      C2154   1.268       .  A
Ni2153     O2156   1.884       .  S
Ni2153     O2158   1.893       .  S
C2154      O2164   1.277       .  A
C2154      C2514   1.472       .  S
O2155     Ni2171   2.008   1_545  S
O2155      C2161   1.302       .  A
O2156      C2161   1.271       .  A
C2157      O3044   1.279       .  A
C2157      C2507   1.489       .  S
O2158      C2160   1.252       .  A
O2159     Ni2170   1.969       .  S
C2160      O2166   1.271       .  A
C2160      C2586   1.443       .  S
C2161      C2516   1.455       .  S
H2162      O2163   0.966       .  S
O2163     Ni3067   1.976       .  S
O2163     Ni2165   1.890       .  S
O2163     Ni2170   1.928       .  S
O2164     Ni2165   1.970       .  S
Ni2165     O2169   1.909       .  S
Ni2165     O2167   1.893       .  S
Ni2165     O3045   1.952       .  S
O2166     Ni2171   1.965   1_545  S
C2168      O3043   1.246       .  A
C2168      O2169   1.249       .  A
C2168      C2559   1.393       .  S
Ni2171     O3059   1.976       .  S
H2172      O3045   0.966       .  S
O2173     Ni2179   1.917   1_655  S
O2173      C2194   1.272       .  A
O2174     Ni2197   1.910       .  S
O2174      C2183   1.251       .  A
O2175     Ni2179   1.930   1_655  S
O2175     Ni2197   1.889       .  S
O2175     Ni2191   1.976       .  S
O2175      H2198   0.966       .  S
C2176      O2193   1.301       .  A
C2176      O2185   1.273       .  A
C2176      C2485   1.452       .  S
O2177     Ni2196   1.893       .  S
O2177      C2183   1.246       .  A
O2178     Ni2196   1.890       .  S
O2178      C2180   1.251       .  A
Ni2179     O2184   1.929       .  S
C2180      O2190   1.274       .  A
C2180      C2481   1.446       .  S
O2181     Ni2197   1.890       .  S
O2182      C2187   1.282       .  A
C2183      C2479   1.389       .  S
O2184      C2186   1.269       .  A
O2185     Ni2196   1.887       .  S
C2186      O2192   1.279       .  A
C2187      C2483   1.442       .  S
H2188      O2189   0.966       .  S
O2189     Ni2197   1.950       .  S
O2189     Ni2191   1.902       .  S
O2189     Ni2196   1.915       .  S
O2190     Ni2191   1.971       .  S
Ni2191     O2195   1.925       .  S
Ni2191     O2193   2.001       .  S
O2192     Ni2197   1.978   1_455  S
C2194      O2195   1.280       .  A
C2194      C2490   1.491       .  S
C2199      C3096   1.561       .  S
C2199      C3101   1.545       .  S
C2199      C2203   1.557       .  S
C2199      C2493   1.542       .  S
C2200      C3095   1.561   1_545  S
C2200      H2207   1.082       .  S
C2200      C2201   1.368       .  D
C2201      C2202   1.527       .  S
C2201      C2517   1.452       .  S
C2202      C2206   1.524       .  S
C2202      C3100   1.528       .  S
C2202      H2208   1.113       .  S
C2203      H2209   1.086       .  S
C2203      C2204   1.374       .  D
C2204      C3098   1.528       .  S
C2204      C2499   1.454       .  S
C2205      C3095   1.545   1_545  S
C2205      H2210   1.087       .  S
C2205      C2206   1.355       .  D
C2206      C2477   1.437       .  S
O2211     Ni2217   1.915       .  S
O2211      C2232   1.273       .  A
O2212     Ni2235   1.910       .  S
O2212      C2221   1.254       .  A
O2213     Ni2217   1.927       .  S
O2213     Ni2235   1.891       .  S
O2213     Ni2229   1.980       .  S
O2213      H2236   0.966       .  S
C2214      O2231   1.303       .  A
C2214      O2223   1.273       .  A
C2214      C2486   1.453       .  S
O2215     Ni2234   1.893       .  S
O2215      C2221   1.246       .  A
O2216     Ni2234   1.891       .  S
O2216      C2218   1.250       .  A
Ni2217     O2220   1.963       .  S
Ni2217     O2222   1.931       .  S
C2218      O2228   1.272       .  A
C2218      C2461   1.445       .  S
O2219     Ni2235   1.894       .  S
O2219      C2225   1.266       .  A
O2220      C2225   1.281       .  A
C2221      C2465   1.391       .  S
O2222      C2224   1.270       .  A
O2223     Ni2234   1.885       .  S
C2224      O2230   1.279       .  A
C2224      C2488   1.478       .  S
C2225      C2463   1.443       .  S
H2226      O2227   0.966       .  S
O2227     Ni2235   1.947       .  S
O2227     Ni2229   1.900       .  S
O2227     Ni2234   1.910       .  S
O2228     Ni2229   1.971       .  S
Ni2229     O2233   1.925       .  S
Ni2229     O2231   2.006       .  S
O2230     Ni2235   1.974       .  S
C2232      O2233   1.280       .  A
C2232      C2468   1.494       .  S
C2237      C2238   1.565       .  S
C2237      C2243   1.547       .  S
C2237      C2241   1.554       .  S
C2237      C2471   1.545       .  S
C2238      H2245   1.082       .  S
C2238      C2239   1.368       .  D
C2239      C2240   1.524       .  S
C2239      C2501   1.453       .  S
C2240      C2244   1.521       .  S
C2240      C2242   1.526       .  S
C2240      H2246   1.113       .  S
C2241      H2247   1.086       .  S
C2241      C2242   1.372       .  D
C2242      C2519   1.451       .  S
C2243      H2248   1.087       .  S
C2243      C2244   1.359       .  D
C2244      C2478   1.436       .  S
C2249      C2250   1.555   1_655  S
C2249      C2255   1.545   1_655  S
C2249      C2253   1.564       .  S
C2249      C2452   1.544       .  S
C2250      H2257   1.086       .  S
C2250      C2251   1.372       .  D
C2251      C2252   1.526       .  S
C2252      C2256   1.521       .  S
C2252      C2254   1.524   1_455  S
C2252      H2258   1.113       .  S
C2253      H2259   1.082       .  S
C2253      C2254   1.368       .  D
C2254      C2446   1.451       .  S
C2255      H2260   1.086       .  S
C2255      C2256   1.357       .  D
O2261      C2282   1.248       .  A
O2262     Ni2285   1.929       .  S
O2262      C2271   1.281       .  A
O2263     Ni2285   1.908       .  S
O2263     Ni2279   1.967       .  S
O2263      H2286   0.965       .  S
C2264      O2281   1.263       .  A
C2264      O2273   1.284       .  A
C2264      C2462   1.447       .  S
O2265     Ni2284   1.918       .  S
O2265      C2271   1.273       .  A
O2266     Ni2284   1.932       .  S
O2266      C2268   1.269       .  A
Ni2267     O2270   1.892       .  S
Ni2267     O2272   1.894       .  S
C2268      O2278   1.278       .  A
C2268      C2441   1.479       .  S
O2269      C2275   1.297       .  A
O2270      C2275   1.270       .  A
C2271      C2455   1.494       .  S
O2272      C2274   1.258       .  A
O2273     Ni2284   1.975       .  S
C2274      O2280   1.273       .  A
C2274      C2464   1.438       .  S
C2275      C2443   1.456       .  S
H2276      O2277   0.966       .  S
O2277     Ni2285   1.975       .  S
O2277     Ni2279   1.885       .  S
O2277     Ni2284   1.926       .  S
O2278     Ni2279   1.977       .  S
Ni2279     O2283   1.910       .  S
Ni2279     O2281   1.888       .  S
C2282      O2283   1.240       .  A
C2282      C2480   1.397       .  S
O2287     Ni2293   1.884       .  S
O2287      C2308   1.248       .  A
O2288     Ni2311   1.924       .  S
O2288      C2297   1.278       .  A
O2289     Ni2293   1.927       .  S
O2289     Ni2311   1.902       .  S
O2289     Ni2305   1.966       .  S
O2289      H2312   0.966       .  S
C2290      O2307   1.263       .  A
C2290      O2299   1.285       .  A
C2290      C2482   1.449       .  S
O2291     Ni2310   1.924       .  S
O2291      C2297   1.274       .  A
O2292     Ni2310   1.935       .  S
O2292      C2294   1.270       .  A
Ni2293     O2296   1.888       .  S
Ni2293     O2298   1.898       .  S
C2294      O2304   1.275       .  A
C2294      C2442   1.479       .  S
O2295     Ni2311   2.001       .  S
O2295      C2301   1.297       .  A
O2296      C2301   1.267       .  A
C2297      C2432   1.492       .  S
O2298      C2300   1.260       .  A
O2299     Ni2310   1.978       .  S
C2300      O2306   1.275       .  A
C2300      C2484   1.440       .  S
C2301      C2444   1.455       .  S
H2302      O2303   0.966       .  S
O2303     Ni2311   1.979       .  S
O2303     Ni2305   1.885       .  S
O2303     Ni2310   1.931       .  S
O2304     Ni2305   1.971       .  S
Ni2305     O2309   1.907       .  S
Ni2305     O2307   1.891       .  S
O2306     Ni2311   1.957       .  S
C2308      O2309   1.240       .  A
C2308      C2466   1.402       .  S
C2313      C2314   1.558       .  S
C2313      C3215   1.545       .  S
C2313      C3213   1.562       .  S
C2313      C2435   1.544       .  S
C2314      H2321   1.085       .  S
C2314      C2315   1.375       .  D
C2315      C3212   1.525       .  S
C2315      C2430   1.454       .  S
C2316      C3211   1.525   1_545  S
C2316      C2320   1.522       .  S
C2316      C2318   1.525       .  S
C2316      H2322   1.113       .  S
C2317      C3209   1.562   1_545  S
C2317      H2323   1.082       .  S
C2317      C2318   1.367       .  D
C2318      C2428   1.451       .  S
C2319      C3209   1.545   1_545  S
C2319      H2324   1.087       .  S
C2319      C2320   1.356       .  D
C2320      C2449   1.433       .  S
O2325     Ni2331   1.915       .  S
O2325      C2346   1.273       .  A
O2326     Ni2349   1.910       .  S
O2326      C2335   1.247       .  A
O2327     Ni2331   1.926       .  S
O2327     Ni2349   1.884       .  S
O2327     Ni2343   1.975       .  S
O2327      H2350   0.965       .  S
C2328      O2345   1.298       .  A
C2328      O2337   1.273       .  A
C2328      C2416   1.456       .  S
O2329     Ni2348   1.891       .  S
O2329      C2335   1.247       .  A
O2330     Ni2348   1.890       .  S
O2330      C2332   1.254       .  A
Ni2331     O2334   1.973       .  S
Ni2331     O2336   1.928       .  S
C2332      O2342   1.274       .  A
C2332      C2628   1.442       .  S
O2333     Ni2349   1.892       .  S
O2333      C2339   1.263       .  A
O2334      C2339   1.283       .  A
C2335      C2610   1.391       .  S
O2336      C2338   1.268       .  A
O2337     Ni2348   1.895       .  S
C2338      O2344   1.280       .  A
C2338      C2413   1.480       .  S
C2339      C2626   1.446       .  S
H2340      O2341   0.966       .  S
O2341     Ni2349   1.960       .  S
O2341     Ni2343   1.906       .  S
O2341     Ni2348   1.916       .  S
O2342     Ni2343   1.964       .  S
Ni2343     O2347   1.923       .  S
Ni2343     O2345   1.998       .  S
O2344     Ni2349   1.983       .  S
C2346      O2347   1.278       .  A
C2346      C2418   1.491       .  S
C2351      C2352   1.563       .  S
C2351      C2357   1.545       .  S
C2351      C2355   1.553       .  S
C2351      C2421   1.540       .  S
C2352      H2359   1.081       .  S
C2352      C2353   1.366       .  D
C2353      C2354   1.526       .  S
C2353      C2448   1.453       .  S
C2354      C2358   1.523       .  S
C2354      C2356   1.528       .  S
C2354      H2360   1.113       .  S
C2355      H2361   1.086       .  S
C2355      C2356   1.371       .  D
C2356      C2427   1.450       .  S
C2357      H2362   1.087       .  S
C2357      C2358   1.358       .  D
C2358      C2412   1.435       .  S
O2363     Ni2369   1.913       .  S
O2363      C3280   1.272       .  A
O2364     Ni2387   1.909       .  S
O2364      C2373   1.242       .  A
O2365     Ni2369   1.932       .  S
O2365     Ni2387   1.886       .  S
O2365     Ni3277   1.981       .  S
O2365      H2388   0.966       .  S
C2366      O2383   1.299       .  A
C2366      O2375   1.269       .  A
C2366      C2415   1.455       .  S
O2367     Ni2386   1.884       .  S
O2367      C3269   1.247   1_545  A
O2368     Ni2386   1.896       .  S
O2368      C2370   1.258       .  A
Ni2369     O2372   1.969       .  S
Ni2369     O2374   1.936       .  S
C2370      O2380   1.272       .  A
C2370      C2606   1.439       .  S
O2371     Ni2387   1.891       .  S
O2371      C2377   1.263       .  A
O2372      C2377   1.282       .  A
C2373      O3263   1.247       .  A
C2373      C2624   1.399       .  S
O2374      C2376   1.271       .  A
O2375     Ni2386   1.886       .  S
C2376      O2382   1.276       .  A
C2376      C2414   1.480       .  S
C2377      C2608   1.446       .  S
H2378      O2379   0.966       .  S
O2379     Ni3283   1.962       .  S
O2379     Ni2381   1.909       .  S
O2379     Ni2386   1.926   1_565  S
O2380     Ni2381   1.955   1_545  S
Ni2381     O2385   1.927       .  S
Ni2381     O2383   2.003   1_565  S
Ni2381     O3261   1.981       .  S
O2382     Ni2387   1.970       .  S
C2384      O3259   1.272       .  A
C2384      O2385   1.281       .  A
C2384      C2402   1.494       .  S
Ni2387     O3275   1.962       .  S
C2389      C3286   1.564   1_545  S
C2389      C2393   1.552       .  S
C2389      C2405   1.541   1_545  S
C2390      C3285   1.564       .  S
C2391      C3288   1.528       .  S
C2391      C2429   1.457       .  S
C2392      C3287   1.528       .  S
C2392      C2396   1.526       .  S
C2392      H2398   1.113       .  S
C2393      H2399   1.086       .  S
C2393      C2394   1.370       .  D
C2394      C2445   1.450       .  S
C2395      H2400   1.087       .  S
C2395      C2396   1.357       .  D
C2396      C2411   1.436       .  S
C2401      C2406   1.400       .  A
C2401      H2407   1.084       .  S
C2402      C2403   1.405   1_565  A
C2403      C2404   1.409       .  A
C2403      H2408   1.082       .  S
C2404      C2405   1.415   1_545  A
C2404      H2409   1.083       .  S
C2406      H2410   1.077       .  S
C2411      C2412   1.202       .  T
C2413      C2414   1.233       .  T
C2415      C2416   1.220       .  T
C2417      C2418   1.406       .  A
C2417      C2422   1.397       .  A
C2417      H2423   1.084       .  S
C2418      C2419   1.405       .  A
C2419      C2420   1.409       .  A
C2419      H2424   1.082       .  S
C2420      C2421   1.415       .  A
C2420      H2425   1.083       .  S
C2421      C2422   1.409       .  A
C2422      H2426   1.076       .  S
C2427      C2428   1.211       .  T
C2429      C2430   1.214       .  T
C2431      C3328   1.407       .  A
C2431      C2436   1.404       .  A
C2431      H2437   1.083       .  S
C2432      C3327   1.407       .  A
C2432      C2433   1.404       .  A
C2433      C2434   1.407       .  A
C2433      H2438   1.082       .  S
C2434      C2435   1.413       .  A
C2434      H2439   1.083       .  S
C2435      C3332   1.412       .  A
C2436      C3331   1.412       .  A
C2436      H2440   1.077       .  S
C2441      C2442   1.232       .  T
C2443      C2444   1.221       .  T
C2445      C2446   1.211       .  T
C2447      C2448   1.212       .  T
C2449      C2450   1.200       .  T
C2451      C2452   1.410       .  A
C2451      C2456   1.402       .  A
C2451      H2457   1.077       .  S
C2452      C2453   1.415       .  A
C2453      C2454   1.409       .  A
C2454      C2455   1.404       .  A
C2455      C2456   1.408       .  A
C2456      H2460   1.083       .  S
C2461      C2462   1.214       .  T
C2463      C2464   1.210       .  T
C2465      C2466   1.187       .  T
C2467      C2468   1.405       .  A
C2467      C2472   1.410       .  A
C2467      H2473   1.083       .  S
C2468      C2469   1.407       .  A
C2469      C2470   1.401       .  A
C2469      H2474   1.084       .  S
C2470      C2471   1.410       .  A
C2470      H2475   1.077       .  S
C2471      C2472   1.415       .  A
C2472      H2476   1.083       .  S
C2477      C2478   1.202       .  T
C2479      C2480   1.185       .  T
C2481      C2482   1.215       .  T
C2483      C2484   1.211       .  T
C2485      C2486   1.218       .  T
C2487      C2488   1.231       .  T
C2489      C2490   1.403       .  A
C2489      C2494   1.406       .  A
C2489      H2495   1.082       .  S
C2490      C2491   1.408       .  A
C2491      C2492   1.403       .  A
C2491      H3392   1.084       .  S
C2492      C2493   1.411       .  A
C2492      H3393   1.077       .  S
C2493      C2494   1.413       .  A
C2494      H2498   1.083       .  S
H2496      C3387   1.084       .  S
H2497      C3388   1.077       .  S
C2499      C2500   1.214       .  T
C2501      C2502   1.213       .  T
C2503      C3400   1.409       .  A
C2503      C2508   1.400       .  A
C2503      H2509   1.077       .  S
C2504      C3399   1.409       .  A
C2504      C2505   1.415       .  A
C2505      C2506   1.407       .  A
C2505      H2510   1.083       .  S
C2506      C2507   1.404       .  A
C2506      H2511   1.082       .  S
C2507      C3404   1.407       .  A
C2508      C3403   1.407       .  A
C2508      H2512   1.084       .  S
C2513      C2514   1.228       .  T
C2515      C2516   1.220       .  T
C2517      C2518   1.212       .  T
C2519      C2520   1.212       .  T
C2521      C2522   1.202       .  T
C2523      C2524   1.413       .  A
C2523      C2528   1.407       .  A
C2523      H2529   1.083       .  S
C2524      C2525   1.411       .  A
C2525      C2526   1.404       .  A
C2525      H2530   1.077       .  S
C2526      C2527   1.407       .  A
C2526      H2531   1.083       .  S
C2527      C2528   1.405       .  A
C2528      H2532   1.081       .  S
C2533      C2534   1.404       .  A
C2533      C2538   1.407       .  A
C2533      H2539   1.083       .  S
C2534      C2535   1.407       .  A
C2535      C2536   1.399       .  A
C2535      H2540   1.083       .  S
C2536      C2537   1.409       .  A
C2536      H2541   1.077       .  S
C2537      C2538   1.414       .  A
C2538      H2542   1.083       .  S
C2543      C2544   1.198       .  T
C2545      C2546   1.228       .  T
C2547      C2548   1.224       .  T
C2549      C2550   1.414       .  A
C2549      C2554   1.407       .  A
C2549      H2555   1.083       .  S
C2550      C2551   1.409       .  A
C2551      C2552   1.401       .  A
C2551      H3452   1.077       .  S
C2552      C2553   1.407       .  A
C2552      H3453   1.083       .  S
C2553      C2554   1.405       .  A
C2554      H2558   1.083       .  S
H2556      C3447   1.077       .  S
H2557      C3448   1.083       .  S
C2559      C2560   1.186       .  T
C2561      C2562   1.213       .  T
C2563      C2564   1.214       .  T
C2565      C2566   1.213       .  T
C2567      C2568   1.212       .  T
C2569      C2570   1.410       .  A
C2569      C2574   1.401       .  A
C2569      H3471   1.076       .  S
C2570      C2571   1.416       .  A
C2571      C2572   1.412       .  A
C2571      H2576   1.083       .  S
C2572      C2573   1.406       .  A
C2572      H2577   1.082       .  S
C2573      C2574   1.407       .  A
C2574      H3474   1.083       .  S
H2575      C3465   1.076   1_545  S
H2578      C3470   1.083       .  S
C2579      C2580   1.229       .  T
C2581      C2582   1.223       .  T
C2583      C2584   1.184       .  T
C2585      C2586   1.213       .  T
C2587      C2588   1.213       .  T
C2589      C2590   1.212       .  T
C2591      C2592   1.212       .  T
C2593      C2594   1.200       .  T
C2595      C2596   1.410       .  A
C2595      C2600   1.401       .  A
C2595      H2601   1.077       .  S
C2596      C2597   1.415       .  A
C2597      C2598   1.409       .  A
C2597      H2602   1.083       .  S
C2598      C2599   1.404       .  A
C2598      H2603   1.083       .  S
C2599      C2600   1.408       .  A
C2600      H2604   1.083       .  S
C2605      C2606   1.210       .  T
C2607      C2608   1.213       .  T
C2609      C2610   1.186       .  T
C2611      C2612   1.410       .  A
C2611      C2616   1.405       .  A
C2612      C2613   1.404       .  A
C2613      C2614   1.408       .  A
C2613      H2618   1.082       .  S
C2614      C2615   1.414       .  A
C2614      H2619   1.083       .  S
C2615      C2616   1.411       .  A
C2621      C2622   1.200       .  T
C2623      C2624   1.187       .  T
C2625      C2626   1.213       .  T
C2627      C2628   1.213       .  T
C2629      C2630   1.233       .  T
C2631      C2632   1.224       .  T
C2633      C2634   1.404       .  A
C2633      C2638   1.407       .  A
C2633      H2639   1.082       .  S
C2634      C2635   1.407       .  A
C2635      C2636   1.403       .  A
C2635      H2640   1.083       .  S
C2636      C2637   1.411       .  A
C2636      H2641   1.077       .  S
C2637      C2638   1.414       .  A
C2638      H2642   1.083       .  S
C2643      C2644   1.216       .  T
C2645      C2646   1.218       .  T
C2647      C2648   1.187       .  T
C2649      C2650   1.212       .  T
C2651      C2652   1.215       .  T
C2653      C2654   1.416       .  A
C2653      C2658   1.410       .  A
C2654      C2655   1.409       .  A
C2655      C2656   1.403       .  A
C2655      H2660   1.077       .  S
C2656      C2657   1.409       .  A
C2656      H2661   1.083       .  S
C2657      C2658   1.405       .  A
C2663      C2664   1.232       .  T
C2665      C2666   1.223       .  T
C2667      C2668   1.188       .  T
C2669      C2670   1.217       .  T
C2671      C2672   1.215       .  T
C2673      C2674   1.216       .  T
C2675      C2676   1.216       .  T
C2677      C2678   1.199       .  T
C2679      C2680   1.417       .  A
C2679      C2684   1.413       .  A
C2679      H2685   1.083       .  S
C2680      C2681   1.410       .  A
C2681      C2682   1.404       .  A
C2681      H2686   1.077       .  S
C2682      C2683   1.410       .  A
C2682      H2687   1.083       .  S
C2683      C2684   1.405       .  A
C2684      H2688   1.083       .  S
C2689      C2690   1.569       .  S
C2689      C2695   1.542       .  S
C2689      C2693   1.559       .  S
C2689      C3576   1.551       .  S
C2690      H2697   1.082       .  S
C2690      C2691   1.373       .  D
C2691      C2692   1.523       .  S
C2691      C3571   1.459       .  S
C2692      C2696   1.521       .  S
C2692      C2694   1.525       .  S
C2692      H2698   1.113       .  S
C2693      H2699   1.085       .  S
C2693      C2694   1.375       .  D
C2694      C3570   1.456       .  S
C2695      H2700   1.087       .  S
C2695      C2696   1.356       .  D
C2696      C3573   1.430       .  S
O2701     Ni2707   1.916       .  S
O2701      C2722   1.274       .  A
O2702     Ni2725   1.905       .  S
O2702      C2711   1.238       .  A
O2703     Ni2707   1.936       .  S
O2703     Ni2725   1.881       .  S
O2703     Ni2719   1.985       .  S
O2703      H2726   0.966       .  S
C2704      O2721   1.298       .  A
C2704      O2713   1.270       .  A
C2704      C3562   1.462       .  S
O2705     Ni2724   1.886       .  S
O2705      C2711   1.247       .  A
O2706     Ni2724   1.892       .  S
O2706      C2708   1.258       .  A
Ni2707     O2710   1.980       .  S
Ni2707     O2712   1.936       .  S
C2708      O2718   1.278       .  A
C2708      C3567   1.446       .  S
O2709     Ni2725   1.893       .  S
O2709      C2715   1.262       .  A
O2710      C2715   1.284       .  A
C2711      C3564   1.402       .  S
O2712      C2714   1.270       .  A
O2713     Ni2724   1.892       .  S
C2714      O2720   1.274       .  A
C2714      C3559   1.478       .  S
C2715      C3565   1.453       .  S
H2716      O2717   0.966       .  S
O2717     Ni2725   1.974       .  S
O2717     Ni2719   1.905       .  S
O2717     Ni2724   1.936       .  S
O2718     Ni2719   1.968       .  S
Ni2719     O2723   1.939       .  S
Ni2719     O2721   2.003       .  S
O2720     Ni2725   1.968       .  S
C2722      O2723   1.284       .  A
C2722      C3579   1.500       .  S
C2727      C2728   1.567       .  S
C2727      C2733   1.542   1_655  S
C2727      C2731   1.555   1_655  S
C2727      C3550   1.544       .  S
C2728      H2735   1.082       .  S
C2728      C2729   1.371       .  D
C2729      C2730   1.525   1_655  S
C2729      C3547   1.456       .  S
C2730      C2734   1.522       .  S
C2730      C2732   1.527       .  S
C2730      H2736   1.113       .  S
C2731      C2732   1.372       .  D
C2733      H2738   1.087       .  S
C2733      C2734   1.354       .  D
O2739     Ni2745   1.920       .  S
O2739      C2760   1.274   1_565  A
O2740     Ni2763   1.911       .  S
O2740      C2749   1.254       .  A
O2741     Ni2745   1.931       .  S
O2741      H2764   0.966       .  S
C2742      O2759   1.307       .  A
C2742      O2751   1.273       .  A
C2742      C3561   1.459       .  S
O2743      C2749   1.243       .  A
O2744     Ni2762   1.890       .  S
Ni2745     O2748   1.971       .  S
C2746      O2756   1.274       .  A
C2746      C3541   1.452       .  S
O2747      C2753   1.265       .  A
O2748      C2753   1.283       .  A
C2749      C3543   1.390       .  S
O2750      C2752   1.270       .  A
O2751     Ni2762   1.885       .  S
C2752      O2758   1.278       .  A
C2752      C3560   1.479       .  S
C2753      C3540   1.451       .  S
H2754      O2755   0.966       .  S
O2755     Ni2763   1.942       .  S
O2755     Ni2757   1.899       .  S
O2758     Ni2763   1.971       .  S
C2760      O2761   1.282       .  A
C2760      C3553   1.497   1_545  S
O2765     Ni2771   1.889       .  S
O2765      C2786   1.246       .  A
O2766     Ni2789   1.922       .  S
O2766      C2775   1.279       .  A
O2767     Ni2771   1.919       .  S
O2767     Ni2789   1.903       .  S
O2767     Ni2783   1.954   1_565  S
O2767      H2790   0.966       .  S
C2768      O2785   1.265       .  A
C2768      O2777   1.284       .  A
C2768      C3523   1.447       .  S
O2769      C2775   1.274   1_545  A
O2770     Ni2788   1.932       .  S
O2770      C2772   1.270       .  A
Ni2771     O2774   1.886       .  S
Ni2771     O2776   1.892       .  S
C2772      O2782   1.279       .  A
C2772      C3525   1.481       .  S
O2773     Ni2789   2.013       .  S
O2773      C2779   1.304       .  A
O2774      C2779   1.271       .  A
C2775      C3530   1.493       .  S
O2776      C2778   1.252       .  A
O2777     Ni2788   1.971       .  S
C2778      O2784   1.270       .  A
C2778      C3521   1.444       .  S
C2779      C3528   1.461       .  S
H2780      O2781   0.965       .  S
O2781     Ni2789   1.975       .  S
O2781     Ni2783   1.891   1_565  S
Ni2783     O2787   1.911       .  S
O2784     Ni2789   1.964       .  S
C2786      O2787   1.249   1_565  A
C2786      C3519   1.394       .  S
C2791      C2792   1.557       .  S
C2791      C2797   1.545       .  S
C2791      C2795   1.562       .  S
C2791      C3533   1.545       .  S
C2792      H2799   1.085       .  S
C2792      C2793   1.374       .  D
C2793      C2794   1.528       .  S
C2793      C3572   1.458       .  S
C2794      C2798   1.524       .  S
C2794      C2796   1.527       .  S
C2794      H2800   1.113       .  S
C2795      C2796   1.367       .  D
C2796      C3546   1.452       .  S
C2797      H2802   1.087       .  S
C2797      C2798   1.356       .  D
C2798      C3517   1.433       .  S
O2803     Ni2809   1.883       .  S
O2803      C2824   1.247       .  A
O2804     Ni2827   1.930       .  S
O2804      C2813   1.282       .  A
O2805     Ni2809   1.928       .  S
O2805     Ni2827   1.907       .  S
O2805     Ni2821   1.963       .  S
O2805      H2828   0.966       .  S
C2806      O2823   1.264       .  A
C2806      O2815   1.282       .  A
C2806      C3501   1.442       .  S
O2807     Ni2826   1.921       .  S
O2807      C2813   1.273       .  A
O2808     Ni2826   1.938       .  S
O2808      C2810   1.272       .  A
Ni2809     O2812   1.883       .  S
Ni2809     O2814   1.897       .  S
C2810      O2820   1.276       .  A
C2810      C3526   1.481       .  S
O2811     Ni2827   2.014       .  S
O2811      C2817   1.303       .  A
O2812      C2817   1.268       .  A
C2813      C3508   1.498       .  S
O2814      C2816   1.255       .  A
O2815     Ni2826   1.967       .  S
C2816      O2822   1.272       .  A
C2816      C3503   1.445       .  S
C2817      C3527   1.460       .  S
H2818      O2819   0.965       .  S
O2819     Ni2827   1.979       .  S
O2819     Ni2821   1.888       .  S
O2819     Ni2826   1.927       .  S
O2820     Ni2821   1.971       .  S
Ni2821     O2825   1.909       .  S
Ni2821     O2823   1.892       .  S
O2822     Ni2827   1.963       .  S
C2824      O2825   1.244       .  A
C2824      C3505   1.397       .  S
C2829      C2830   1.555       .  S
C2829      C2835   1.544       .  S
C2829      C2833   1.564       .  S
C2829      C3511   1.545       .  S
C2830      H2837   1.086       .  S
C2830      C2831   1.372       .  D
C2831      C2832   1.529   1_655  S
C2831      C3548   1.456       .  S
C2832      C2834   1.529       .  S
C2833      H2839   1.082       .  S
C2833      C2834   1.371   1_655  D
C2835      H2840   1.087       .  S
C2836      C3518   1.432       .  S
C2841      C2842   1.564       .  S
C2841      C2847   1.543       .  S
C2841      C2845   1.555       .  S
C2841      C3492   1.542       .  S
C2842      H2849   1.081       .  S
C2842      C2843   1.368       .  D
C2843      C2844   1.525       .  S
C2843      C3488   1.452       .  S
C2844      C2848   1.523       .  S
C2844      C2846   1.528       .  S
C2844      H2850   1.113       .  S
C2845      H2851   1.086       .  S
C2845      C2846   1.373       .  D
C2846      C3485   1.452       .  S
C2847      H2852   1.087       .  S
C2847      C2848   1.354       .  D
C2848      C3489   1.433       .  S
O2853     Ni2859   1.915       .  S
O2853      C2874   1.274       .  A
O2854     Ni2877   1.907   1_556  S
O2854      C2863   1.244       .  A
O2855     Ni2859   1.935       .  S
O2855     Ni2877   1.886       .  S
O2855     Ni2871   1.983       .  S
O2855      H2878   0.965       .  S
C2856      O2873   1.302       .  A
C2856      O2865   1.271       .  A
C2856      C3477   1.459       .  S
O2857     Ni2876   1.889   1_556  S
O2857      C2863   1.246       .  A
O2858     Ni2876   1.890       .  S
O2858      C2860   1.254       .  A
Ni2859     O2862   1.974       .  S
Ni2859     O2864   1.931       .  S
C2860      O2870   1.274       .  A
C2860      C3484   1.444   1_554  S
O2861     Ni2877   1.889   1_556  S
O2861      C2867   1.262   1_556  A
O2862      C2867   1.283       .  A
C2863      C3479   1.389       .  S
O2864      C2866   1.269       .  A
O2865     Ni2876   1.888       .  S
C2866      O2872   1.277       .  A
C2866      C3476   1.475       .  S
C2867      C3481   1.447   1_554  S
H2868      O2869   0.966       .  S
O2869     Ni2877   1.958       .  S
O2869     Ni2871   1.906       .  S
O2869     Ni2876   1.920       .  S
O2870     Ni2871   1.967       .  S
Ni2871     O2875   1.929       .  S
Ni2871     O2873   2.010       .  S
O2872     Ni2877   1.973       .  S
C2874      O2875   1.283       .  A
C2874      C3495   1.494       .  S
C2879      C2880   1.566       .  S
C2879      C2885   1.545       .  S
C2879      C2883   1.556       .  S
C2879      C3466   1.548       .  S
C2880      C2881   1.368       .  D
C2881      C2882   1.522       .  S
C2881      C3461   1.454       .  S
C2882      C2886   1.521       .  S
C2882      C2884   1.524       .  S
C2882      H2888   1.113       .  S
C2883      H2889   1.086       .  S
C2883      C2884   1.374       .  D
C2884      C3463   1.450       .  S
C2885      H2890   1.086       .  S
C2885      C2886   1.358       .  D
C2886      C3490   1.433       .  S
O2891      C2912   1.274   1_545  A
O2892     Ni2915   1.908   1_556  S
O2893     Ni2915   1.884       .  S
O2893     Ni2909   1.979   1_545  S
O2893      H2916   0.965   1_545  S
C2894      O2903   1.271       .  A
C2894      C3478   1.460       .  S
O2895     Ni2914   1.887   1_556  S
O2895      C2901   1.247       .  A
O2896      C2898   1.256       .  A
Ni2897     O2900   1.976       .  S
Ni2897     O2902   1.930       .  S
C2898      O2908   1.273       .  A
C2898      C3457   1.443   1_554  S
O2899      C2905   1.263       .  A
O2900      C2905   1.284       .  A
C2901      C3456   1.396       .  S
O2902      C2904   1.269   1_655  A
O2903     Ni2914   1.892       .  S
C2904      O2910   1.276   1_455  A
C2905      C3459   1.447   1_554  S
O2907     Ni2915   1.965   1_565  S
O2907     Ni2909   1.908       .  S
O2908     Ni2909   1.960       .  S
Ni2909     O2913   1.926       .  S
Ni2909     O2911   2.004       .  S
C2912      O2913   1.281       .  A
C2912      C3469   1.497       .  S
O2917     Ni2923   1.895       .  S
O2917      C2938   1.244       .  A
O2918      C2927   1.281   1_545  A
O2919     Ni2923   1.912       .  S
O2919     Ni2941   1.896       .  S
O2919     Ni2935   1.944       .  S
O2919      H2942   0.966       .  S
C2920      O2937   1.265       .  A
C2920      O2929   1.285       .  A
C2920      C3542   1.454       .  S
O2921     Ni2940   1.924       .  S
O2921      C2927   1.276       .  A
O2922      C2924   1.269       .  A
Ni2923     O2926   1.887       .  S
Ni2923     O2928   1.886       .  S
C2924      O2934   1.276       .  A
C2924      C3442   1.472       .  S
O2925     Ni2941   2.017       .  S
O2925      C2931   1.306       .  A
O2926      C2931   1.274       .  A
C2927      C3449   1.492       .  S
O2929     Ni2940   1.978       .  S
C2930      O2936   1.273       .  A
C2930      C3539   1.448       .  S
C2931      C3443   1.462       .  S
H2932      O2933   0.965       .  S
O2933     Ni2940   1.931       .  S
O2934     Ni2935   1.965       .  S
Ni2935     O2939   1.911       .  S
C2938      O2939   1.254       .  A
C2938      C3563   1.392       .  S
C2943      C2944   1.554       .  S
C2943      C2949   1.544       .  S
C2943      C2947   1.564       .  S
C2943      C3446   1.540       .  S
C2944      C2945   1.372       .  D
C2945      C2946   1.528       .  S
C2945      C3462   1.453       .  S
C2946      C2950   1.522       .  S
C2946      C2948   1.525       .  S
C2946      H2952   1.113       .  S
C2947      H2953   1.081       .  S
C2947      C2948   1.367       .  D
C2948      C3486   1.453       .  S
C2949      H2954   1.087       .  S
C2949      C2950   1.355       .  D
C2950      C3439   1.429       .  S
O2955     Ni2961   1.883       .  S
O2955      C2976   1.247       .  A
O2956     Ni2979   1.930       .  S
O2956      C2965   1.280       .  A
O2957     Ni2961   1.926       .  S
O2957     Ni2979   1.902       .  S
O2957     Ni2973   1.968       .  S
O2957      H2980   0.966       .  S
C2958      O2967   1.284       .  A
C2958      C3568   1.449       .  S
O2959     Ni2978   1.914   1_655  S
O2959      C2965   1.273       .  A
O2960     Ni2978   1.932       .  S
O2960      C2962   1.268       .  A
Ni2961     O2964   1.889       .  S
Ni2961     O2966   1.897       .  S
C2962      O2972   1.273       .  A
O2963     Ni2979   2.006       .  S
O2963      C2969   1.299       .  A
O2964      C2969   1.268       .  A
C2965      C3430   1.490       .  S
O2966      C2968   1.258       .  A
C2968      O2974   1.278       .  A
C2968      C3566   1.450       .  S
C2969      C3444   1.460       .  S
H2970      O2971   0.966       .  S
O2971     Ni2979   1.983       .  S
O2971     Ni2973   1.883       .  S
O2971     Ni2978   1.933   1_655  S
O2972     Ni2973   1.967   1_455  S
Ni2973     O2977   1.906       .  S
Ni2973     O2975   1.891   1_655  S
O2974     Ni2979   1.970       .  S
C2976      O2977   1.240       .  A
C2976      C3544   1.402       .  S
C2981      C2982   1.553       .  S
C2981      C2987   1.542       .  S
C2981      C2985   1.561       .  S
C2981      C3433   1.538       .  S
C2982      H2989   1.086       .  S
C2982      C2983   1.371       .  D
C2983      C2984   1.529       .  S
C2983      C3487   1.451       .  S
C2984      C2988   1.524       .  S
C2984      C2986   1.529       .  S
C2984      H2990   1.113       .  S
C2985      H2991   1.081       .  S
C2985      C2986   1.366       .  D
C2986      C3464   1.453       .  S
C2987      H2992   1.087       .  S
C2987      C2988   1.354       .  D
C2988      C3440   1.430       .  S
C2993      C2994   1.553       .  S
C2993      C2999   1.548       .  S
C2993      C2997   1.562       .  S
C2993      C3420   1.543       .  S
C2994      H3001   1.086       .  S
C2994      C2995   1.371       .  D
C2995      C2996   1.528       .  S
C2995      C3414   1.451       .  S
C2996      C3000   1.523       .  S
C2996      C2998   1.527       .  S
C2996      H3002   1.113       .  S
C2997      H3003   1.082       .  S
C2997      C2998   1.367       .  D
C2998      C3416   1.453       .  S
C2999      H3004   1.086       .  S
C2999      C3000   1.359       .  D
C3000      C3418   1.436       .  S
O3005     Ni3011   1.890       .  S
O3005      C3026   1.247       .  A
O3006     Ni3029   1.920       .  S
O3006      C3015   1.278       .  A
O3007     Ni3029   1.903       .  S
O3007     Ni3023   1.958       .  S
C3008      O3025   1.264       .  A
C3008      O3017   1.284       .  A
C3008      C3458   1.447       .  S
O3009     Ni3028   1.928       .  S
O3009      C3015   1.275       .  A
O3010     Ni3028   1.927       .  S
O3010      C3012   1.269   1_655  A
Ni3011     O3014   1.891       .  S
C3012      O3022   1.277   1_455  A
O3013     Ni3029   2.002       .  S
O3014      C3019   1.271       .  A
C3015      C3423   1.493       .  S
O3016      C3018   1.254       .  A
O3017     Ni3028   1.975       .  S
C3018      O3024   1.273       .  A
C3018      C3460   1.444       .  S
C3019      C3411   1.456       .  S
H3020      O3021   0.965       .  S
O3021     Ni3029   1.975       .  S
O3021     Ni3023   1.888       .  S
O3021     Ni3028   1.929       .  S
O3022     Ni3023   1.971       .  S
Ni3023     O3027   1.909       .  S
Ni3023     O3025   1.891       .  S
O3024     Ni3029   1.964       .  S
C3026      C3480   1.390       .  S
C3031      C3035   1.564   1_545  S
C3031      C3400   1.540   1_545  S
C3032      H3039   1.086       .  S
C3032      C3033   1.370       .  D
C3033      C3034   1.528       .  S
C3033      C3398   1.452       .  S
C3034      C3038   1.524       .  S
C3034      H3040   1.113       .  S
C3035      H3041   1.082       .  S
C3035      C3036   1.369   1_565  D
C3036      C3396   1.455   1_545  S
C3037      H3042   1.087       .  S
C3037      C3038   1.357       .  D
C3038      C3417   1.436       .  S
O3043     Ni3049   1.889       .  S
O3044     Ni3067   1.922       .  S
O3045     Ni3049   1.917       .  S
O3045     Ni3067   1.903       .  S
C3046      O3063   1.265       .  A
C3046      O3055   1.283       .  A
C3046      C3483   1.447       .  S
O3047     Ni3066   1.915       .  S
O3047      C3053   1.273       .  A
O3048     Ni3066   1.925       .  S
O3048      C3050   1.268       .  A
Ni3049     O3052   1.884       .  S
Ni3049     O3054   1.893       .  S
C3050      O3060   1.277       .  A
C3050      C3410   1.472       .  S
O3051     Ni3067   2.009       .  S
O3051      C3057   1.302       .  A
O3052      C3057   1.271       .  A
C3053      C3403   1.489       .  S
O3054      C3056   1.252       .  A
O3055     Ni3066   1.969       .  S
C3056      O3062   1.271       .  A
C3056      C3482   1.443       .  S
C3057      C3412   1.455       .  S
H3058      O3059   0.966       .  S
O3059     Ni3061   1.890       .  S
O3059     Ni3066   1.928       .  S
O3060     Ni3061   1.971       .  S
Ni3061     O3065   1.909       .  S
Ni3061     O3063   1.893       .  S
O3062     Ni3067   1.965       .  S
C3064      O3065   1.249       .  A
C3064      C3455   1.393       .  S
O3069     Ni3075   1.917   1_655  S
O3069      C3090   1.272       .  A
O3070     Ni3093   1.910       .  S
O3070      C3079   1.251       .  A
O3071     Ni3075   1.930   1_655  S
O3071     Ni3093   1.889       .  S
O3071     Ni3087   1.976       .  S
O3071      H3094   0.966       .  S
C3072      O3089   1.301       .  A
C3072      O3081   1.273       .  A
C3072      C3381   1.452       .  S
O3073     Ni3092   1.894       .  S
O3073      C3079   1.246       .  A
O3074     Ni3092   1.890       .  S
O3074      C3076   1.251       .  A
Ni3075     O3080   1.929       .  S
C3076      O3086   1.274       .  A
C3076      C3377   1.446       .  S
O3077     Ni3093   1.890       .  S
O3078      C3083   1.282       .  A
C3079      C3375   1.389       .  S
O3080      C3082   1.270       .  A
O3081     Ni3092   1.887       .  S
C3082      O3088   1.279       .  A
C3083      C3379   1.442       .  S
H3084      O3085   0.966       .  S
O3085     Ni3093   1.949       .  S
O3085     Ni3087   1.901       .  S
O3085     Ni3092   1.915       .  S
O3086     Ni3087   1.971       .  S
Ni3087     O3091   1.925       .  S
Ni3087     O3089   2.002       .  S
O3088     Ni3093   1.977   1_455  S
C3090      O3091   1.280       .  A
C3090      C3386   1.491       .  S
C3095      C3099   1.557       .  S
C3095      C3389   1.542       .  S
C3096      H3103   1.082       .  S
C3096      C3097   1.368       .  D
C3097      C3098   1.527       .  S
C3097      C3413   1.451       .  S
C3098      C3102   1.524       .  S
C3098      H3104   1.113       .  S
C3099      H3105   1.086       .  S
C3099      C3100   1.374   1_565  D
C3100      C3395   1.454   1_545  S
C3101      H3106   1.087       .  S
C3101      C3102   1.355       .  D
C3102      C3373   1.437       .  S
O3107     Ni3113   1.915       .  S
O3107      C3128   1.273       .  A
O3108     Ni3131   1.910       .  S
O3108      C3117   1.254       .  A
O3109     Ni3113   1.927       .  S
O3109     Ni3131   1.891       .  S
O3109     Ni3125   1.980       .  S
O3109      H3132   0.966       .  S
C3110      O3127   1.303       .  A
C3110      O3119   1.273       .  A
C3110      C3382   1.453       .  S
O3111     Ni3130   1.893       .  S
O3111      C3117   1.246       .  A
O3112     Ni3130   1.891       .  S
O3112      C3114   1.250       .  A
Ni3113     O3116   1.963       .  S
Ni3113     O3118   1.930       .  S
C3114      O3124   1.272       .  A
C3114      C3357   1.445       .  S
O3115     Ni3131   1.895       .  S
O3115      C3121   1.266       .  A
O3116      C3121   1.281       .  A
C3117      C3361   1.391       .  S
O3118      C3120   1.270       .  A
O3119     Ni3130   1.885       .  S
C3120      O3126   1.279       .  A
C3120      C3384   1.478       .  S
C3121      C3359   1.443       .  S
H3122      O3123   0.966       .  S
O3123     Ni3131   1.947       .  S
O3123     Ni3125   1.900       .  S
O3123     Ni3130   1.910       .  S
O3124     Ni3125   1.972       .  S
Ni3125     O3129   1.925       .  S
Ni3125     O3127   2.007       .  S
O3126     Ni3131   1.974       .  S
C3128      O3129   1.280       .  A
C3128      C3364   1.493       .  S
C3133      C3134   1.565       .  S
C3133      C3139   1.547       .  S
C3133      C3137   1.554       .  S
C3133      C3367   1.545       .  S
C3134      H3141   1.082       .  S
C3134      C3135   1.368       .  D
C3135      C3136   1.524       .  S
C3135      C3397   1.453       .  S
C3136      C3140   1.521       .  S
C3136      C3138   1.526       .  S
C3136      H3142   1.113       .  S
C3137      H3143   1.086       .  S
C3137      C3138   1.372       .  D
C3138      C3415   1.451       .  S
C3139      H3144   1.087       .  S
C3139      C3140   1.359       .  D
C3140      C3374   1.436       .  S
C3145      C3146   1.555   1_655  S
C3145      C3151   1.545   1_655  S
C3145      C3149   1.564       .  S
C3145      C3348   1.544       .  S
C3146      H3153   1.086       .  S
C3146      C3147   1.372       .  D
C3147      C3148   1.526       .  S
C3148      C3152   1.521       .  S
C3148      C3150   1.524   1_455  S
C3148      H3154   1.113       .  S
C3149      H3155   1.082       .  S
C3149      C3150   1.368       .  D
C3150      C3342   1.451       .  S
C3151      H3156   1.086       .  S
C3151      C3152   1.357       .  D
O3157      C3178   1.248       .  A
O3158     Ni3181   1.929       .  S
O3158      C3167   1.281       .  A
O3159     Ni3181   1.908       .  S
O3159     Ni3175   1.967       .  S
O3159      H3182   0.965       .  S
C3160      O3177   1.263       .  A
C3160      O3169   1.284       .  A
C3160      C3358   1.448       .  S
O3161     Ni3180   1.918       .  S
O3161      C3167   1.273       .  A
O3162     Ni3180   1.932       .  S
O3162      C3164   1.269       .  A
Ni3163     O3166   1.892       .  S
Ni3163     O3168   1.894       .  S
C3164      O3174   1.277       .  A
C3164      C3337   1.479       .  S
O3165      C3171   1.297       .  A
O3166      C3171   1.270       .  A
C3167      C3351   1.494       .  S
O3168      C3170   1.259       .  A
O3169     Ni3180   1.975       .  S
C3170      O3176   1.273       .  A
C3170      C3360   1.438       .  S
C3171      C3339   1.456       .  S
H3172      O3173   0.966       .  S
O3173     Ni3181   1.976       .  S
O3173     Ni3175   1.884       .  S
O3173     Ni3180   1.926       .  S
O3174     Ni3175   1.977       .  S
Ni3175     O3179   1.910       .  S
Ni3175     O3177   1.889       .  S
C3178      O3179   1.240       .  A
C3178      C3376   1.397       .  S
O3183     Ni3189   1.884       .  S
O3183      C3204   1.248       .  A
O3184     Ni3207   1.924       .  S
O3184      C3193   1.278       .  A
O3185     Ni3189   1.927       .  S
O3185     Ni3207   1.902       .  S
O3185     Ni3201   1.967       .  S
O3185      H3208   0.966       .  S
C3186      O3203   1.263       .  A
C3186      O3195   1.285       .  A
C3186      C3378   1.449       .  S
O3187     Ni3206   1.924       .  S
O3187      C3193   1.274       .  A
O3188     Ni3206   1.935       .  S
O3188      C3190   1.270       .  A
Ni3189     O3192   1.888       .  S
Ni3189     O3194   1.899       .  S
C3190      O3200   1.275       .  A
C3190      C3338   1.479       .  S
O3191     Ni3207   2.002       .  S
O3191      C3197   1.297       .  A
O3192      C3197   1.267       .  A
C3193      C3328   1.492       .  S
O3194      C3196   1.260       .  A
O3195     Ni3206   1.978       .  S
C3196      O3202   1.275       .  A
C3196      C3380   1.440       .  S
C3197      C3340   1.455       .  S
H3198      O3199   0.966       .  S
O3199     Ni3207   1.980       .  S
O3199     Ni3201   1.885       .  S
O3199     Ni3206   1.932       .  S
O3200     Ni3201   1.971       .  S
Ni3201     O3205   1.907       .  S
Ni3201     O3203   1.891       .  S
O3202     Ni3207   1.957       .  S
C3204      O3205   1.240       .  A
C3204      C3362   1.402       .  S
C3209      C3210   1.558       .  S
C3209      C3331   1.544       .  S
C3210      H3217   1.085       .  S
C3210      C3211   1.375       .  D
C3211      C3326   1.454       .  S
C3212      C3216   1.522       .  S
C3212      C3214   1.526       .  S
C3212      H3218   1.113       .  S
C3213      H3219   1.082       .  S
C3213      C3214   1.367       .  D
C3214      C3324   1.451       .  S
C3215      H3220   1.087       .  S
C3215      C3216   1.356       .  D
C3216      C3345   1.433       .  S
O3221     Ni3227   1.915       .  S
O3221      C3242   1.273       .  A
O3222     Ni3245   1.910       .  S
O3222      C3231   1.247       .  A
O3223     Ni3227   1.926       .  S
O3223     Ni3245   1.884       .  S
O3223     Ni3239   1.975       .  S
O3223      H3246   0.965       .  S
C3224      O3241   1.298       .  A
C3224      O3233   1.273       .  A
C3224      C3312   1.456       .  S
O3225     Ni3244   1.891       .  S
O3225      C3231   1.247       .  A
O3226     Ni3244   1.890       .  S
O3226      C3228   1.254       .  A
Ni3227     O3230   1.973       .  S
Ni3227     O3232   1.928       .  S
C3228      O3238   1.274       .  A
C3228      C3524   1.442       .  S
O3229     Ni3245   1.892       .  S
O3229      C3235   1.263       .  A
O3230      C3235   1.283       .  A
C3231      C3506   1.391       .  S
O3232      C3234   1.268       .  A
O3233     Ni3244   1.895       .  S
C3234      O3240   1.280       .  A
C3234      C3309   1.480       .  S
C3235      C3522   1.446       .  S
H3236      O3237   0.966       .  S
O3237     Ni3245   1.960       .  S
O3237     Ni3239   1.906       .  S
O3237     Ni3244   1.916       .  S
O3238     Ni3239   1.964       .  S
Ni3239     O3243   1.923       .  S
Ni3239     O3241   1.998       .  S
O3240     Ni3245   1.983       .  S
C3242      O3243   1.278       .  A
C3242      C3314   1.491       .  S
C3247      C3248   1.563       .  S
C3247      C3253   1.545       .  S
C3247      C3251   1.553       .  S
C3247      C3317   1.540       .  S
C3248      H3255   1.081       .  S
C3248      C3249   1.366       .  D
C3249      C3250   1.526       .  S
C3249      C3344   1.453       .  S
C3250      C3254   1.523       .  S
C3250      C3252   1.528       .  S
C3250      H3256   1.113       .  S
C3251      H3257   1.086       .  S
C3251      C3252   1.371       .  D
C3252      C3323   1.450       .  S
C3253      H3258   1.087       .  S
C3253      C3254   1.358       .  D
C3254      C3308   1.435       .  S
O3259     Ni3265   1.913       .  S
O3260     Ni3283   1.909       .  S
O3260      C3269   1.242       .  A
O3261     Ni3265   1.933       .  S
O3261     Ni3283   1.886       .  S
O3261      H3284   0.966       .  S
C3262      O3279   1.299       .  A
C3262      O3271   1.269       .  A
C3262      C3311   1.455       .  S
O3263     Ni3282   1.884       .  S
O3264     Ni3282   1.896       .  S
O3264      C3266   1.258       .  A
Ni3265     O3268   1.970       .  S
Ni3265     O3270   1.936       .  S
C3266      O3276   1.272       .  A
C3266      C3502   1.439       .  S
O3267     Ni3283   1.891       .  S
O3267      C3273   1.263       .  A
O3268      C3273   1.282       .  A
C3269      C3520   1.398       .  S
O3270      C3272   1.271       .  A
O3271     Ni3282   1.886       .  S
C3272      O3278   1.276       .  A
C3272      C3310   1.480       .  S
C3273      C3504   1.446       .  S
H3274      O3275   0.966       .  S
O3275     Ni3277   1.909       .  S
O3275     Ni3282   1.926       .  S
O3276     Ni3277   1.955       .  S
Ni3277     O3281   1.927       .  S
Ni3277     O3279   2.003       .  S
O3278     Ni3283   1.970       .  S
C3280      O3281   1.281       .  A
C3280      C3298   1.494       .  S
C3285      C3289   1.552       .  S
C3285      C3301   1.541       .  S
C3287      C3325   1.456   1_545  S
C3288      C3292   1.526       .  S
C3288      H3294   1.113       .  S
C3289      H3295   1.086       .  S
C3289      C3290   1.370       .  D
C3290      C3341   1.450       .  S
C3291      H3296   1.087       .  S
C3291      C3292   1.357       .  D
C3292      C3307   1.436       .  S
C3297      C3302   1.400       .  A
C3297      H3303   1.084       .  S
C3298      C3299   1.404       .  A
C3299      C3300   1.409       .  A
C3299      H3304   1.082       .  S
C3300      C3301   1.415       .  A
C3300      H3305   1.083       .  S
C3302      H3306   1.077       .  S
C3307      C3308   1.202       .  T
C3309      C3310   1.233       .  T
C3311      C3312   1.220       .  T
C3313      C3314   1.406       .  A
C3313      C3318   1.398       .  A
C3313      H3319   1.084       .  S
C3314      C3315   1.405       .  A
C3315      C3316   1.409       .  A
C3315      H3320   1.082       .  S
C3316      C3317   1.415       .  A
C3316      H3321   1.083       .  S
C3317      C3318   1.409       .  A
C3318      H3322   1.076       .  S
C3323      C3324   1.211       .  T
C3325      C3326   1.214       .  T
C3327      C3332   1.404       .  A
C3327      H3333   1.083       .  S
C3328      C3329   1.404       .  A
C3329      C3330   1.407       .  A
C3329      H3334   1.082       .  S
C3330      C3331   1.413       .  A
C3330      H3335   1.083       .  S
C3332      H3336   1.077       .  S
C3337      C3338   1.232       .  T
C3339      C3340   1.221       .  T
C3341      C3342   1.211       .  T
C3343      C3344   1.213       .  T
C3345      C3346   1.200       .  T
C3347      C3348   1.410       .  A
C3347      C3352   1.402       .  A
C3347      H3353   1.077       .  S
C3348      C3349   1.415       .  A
C3349      C3350   1.409       .  A
C3350      C3351   1.404       .  A
C3351      C3352   1.408       .  A
C3352      H3356   1.083       .  S
C3357      C3358   1.214       .  T
C3359      C3360   1.210       .  T
C3361      C3362   1.187       .  T
C3363      C3364   1.405       .  A
C3363      C3368   1.410       .  A
C3363      H3369   1.083       .  S
C3364      C3365   1.407       .  A
C3365      C3366   1.401       .  A
C3365      H3370   1.084       .  S
C3366      C3367   1.410       .  A
C3366      H3371   1.077       .  S
C3367      C3368   1.415       .  A
C3368      H3372   1.083       .  S
C3373      C3374   1.202       .  T
C3375      C3376   1.186       .  T
C3377      C3378   1.215       .  T
C3379      C3380   1.211       .  T
C3381      C3382   1.219       .  T
C3383      C3384   1.231       .  T
C3385      C3386   1.403       .  A
C3385      C3390   1.406       .  A
C3385      H3391   1.082       .  S
C3386      C3387   1.408       .  A
C3387      C3388   1.404       .  A
C3388      C3389   1.411       .  A
C3389      C3390   1.413       .  A
C3390      H3394   1.083       .  S
C3395      C3396   1.214       .  T
C3397      C3398   1.213       .  T
C3399      C3404   1.400       .  A
C3399      H3405   1.077       .  S
C3400      C3401   1.415   1_565  A
C3401      C3402   1.407       .  A
C3401      H3406   1.083       .  S
C3402      C3403   1.404   1_545  A
C3402      H3407   1.082       .  S
C3404      H3408   1.084       .  S
C3409      C3410   1.228       .  T
C3411      C3412   1.221       .  T
C3413      C3414   1.212       .  T
C3415      C3416   1.212       .  T
C3417      C3418   1.202       .  T
C3419      C3420   1.413       .  A
C3419      C3424   1.407       .  A
C3419      H3425   1.083       .  S
C3420      C3421   1.411       .  A
C3421      C3422   1.403       .  A
C3421      H3426   1.077       .  S
C3422      C3423   1.407       .  A
C3422      H3427   1.083       .  S
C3423      C3424   1.405       .  A
C3424      H3428   1.081       .  S
C3429      C3430   1.404       .  A
C3429      C3434   1.406       .  A
C3429      H3435   1.083       .  S
C3430      C3431   1.407       .  A
C3431      C3432   1.399       .  A
C3431      H3436   1.083       .  S
C3432      C3433   1.409       .  A
C3432      H3437   1.077       .  S
C3433      C3434   1.414       .  A
C3434      H3438   1.083       .  S
C3439      C3440   1.198       .  T
C3441      C3442   1.228       .  T
C3443      C3444   1.224       .  T
C3445      C3446   1.414       .  A
C3445      C3450   1.407   1_565  A
C3445      H3451   1.083       .  S
C3446      C3447   1.409       .  A
C3447      C3448   1.401       .  A
C3448      C3449   1.407       .  A
C3449      C3450   1.404   1_565  A
C3450      H3454   1.083       .  S
C3455      C3456   1.186       .  T
C3457      C3458   1.213       .  T
C3459      C3460   1.214       .  T
C3461      C3462   1.213       .  T
C3463      C3464   1.212       .  T
C3465      C3466   1.410       .  A
C3465      C3470   1.401   1_565  A
C3466      C3467   1.416       .  A
C3467      C3468   1.412       .  A
C3467      H3472   1.083       .  S
C3468      C3469   1.406       .  A
C3468      H3473   1.082       .  S
C3469      C3470   1.407   1_565  A
C3475      C3476   1.230       .  T
C3477      C3478   1.223       .  T
C3479      C3480   1.183       .  T
C3481      C3482   1.213       .  T
C3483      C3484   1.213       .  T
C3485      C3486   1.212       .  T
C3487      C3488   1.212       .  T
C3489      C3490   1.200       .  T
C3491      C3492   1.410       .  A
C3491      C3496   1.401       .  A
C3491      H3497   1.077       .  S
C3492      C3493   1.415       .  A
C3493      C3494   1.409       .  A
C3493      H3498   1.083       .  S
C3494      C3495   1.404       .  A
C3494      H3499   1.083       .  S
C3495      C3496   1.408       .  A
C3496      H3500   1.083       .  S
C3501      C3502   1.210       .  T
C3503      C3504   1.213       .  T
C3505      C3506   1.186       .  T
C3507      C3508   1.410       .  A
C3507      C3512   1.405       .  A
C3508      C3509   1.404       .  A
C3509      C3510   1.408       .  A
C3509      H3514   1.082       .  S
C3510      C3511   1.414       .  A
C3510      H3515   1.083       .  S
C3511      C3512   1.411       .  A
C3517      C3518   1.200       .  T
C3519      C3520   1.187       .  T
C3521      C3522   1.213       .  T
C3523      C3524   1.213       .  T
C3525      C3526   1.233       .  T
C3527      C3528   1.224       .  T
C3529      C3530   1.404       .  A
C3529      C3534   1.407       .  A
C3529      H3535   1.082       .  S
C3530      C3531   1.407   1_565  A
C3531      C3532   1.403   1_545  A
C3531      H3536   1.083       .  S
C3532      C3533   1.411       .  A
C3532      H3537   1.077   1_565  S
C3533      C3534   1.414       .  A
C3534      H3538   1.083       .  S
C3539      C3540   1.216       .  T
C3541      C3542   1.218       .  T
C3543      C3544   1.187       .  T
C3545      C3546   1.212       .  T
C3547      C3548   1.215       .  T
C3549      C3550   1.416       .  A
C3549      C3554   1.410   1_565  A
C3550      C3551   1.409       .  A
C3551      C3552   1.403       .  A
C3551      H3556   1.077       .  S
C3552      C3553   1.409       .  A
C3552      H3557   1.083       .  S
C3553      C3554   1.405   1_565  A
C3559      C3560   1.232       .  T
C3561      C3562   1.223       .  T
C3563      C3564   1.188       .  T
C3565      C3566   1.217       .  T
C3567      C3568   1.215       .  T
C3569      C3570   1.216       .  T
C3571      C3572   1.217       .  T
C3573      C3574   1.199       .  T
C3575      C3576   1.417       .  A
C3575      C3580   1.413       .  A
C3575      H3581   1.083       .  S
C3576      C3577   1.410       .  A
C3577      C3578   1.404       .  A
C3577      H3582   1.077       .  S
C3578      C3579   1.410       .  A
C3578      H3583   1.083       .  S
C3579      C3580   1.405       .  A
C3580      H3584   1.083       .  S
