geometry optimzed in LAMMPS
_audit_creation_date              2020-11-30 
_audit_creation_method            'lammps2cif' 
_symmetry_space_group_name_H-M    'P1' 
_symmetry_Int_Tables_number       1 
_symmetry_cell_setting            triclinic 
loop_ 
_symmetry_equiv_pos_as_xyz 
  x,y,z 
_cell_length_a                    32.30662667 
_cell_length_b                    40.26830999763915 
_cell_length_c                    25.180833005492325 
_cell_angle_alpha                 89.79206486810403 
_cell_angle_beta                  89.96834216943108 
_cell_angle_gamma                 88.23819708866307 
loop_ 
_atom_site_label 
_atom_site_type_symbol 
_atom_site_fract_x 
_atom_site_fract_y 
_atom_site_fract_z 
_atom_site_charge 
N1          N  0.07578260  0.32975474  0.97299143    -0.25200
N2          N  0.05512957  0.31487309  0.93495926    -0.33100
C3          C  0.08242190  0.29955714  0.90206689     0.03100
C4          C  0.12224292  0.30502308  0.92014858     0.09100
C5          C  0.11672013  0.32443277  0.96501892    -0.04000
H6          H  0.07369621  0.28476289  0.86836020     0.09800
H7          H  0.14068120  0.33280696  0.99135931     0.11000
Cu8        Cu  0.49022324  0.31750681  0.92738077     0.44200
Cu9        Cu  0.04721622  0.35389748  0.03687275     0.42000
Cu10       Cu  0.43880659  0.34298352  0.04694870     0.43900
N11         N  0.42740449  0.31021135  0.94088382    -0.32600
N12         N  0.40934919  0.31764467  0.98662902    -0.26900
C13         C  0.37068601  0.30607034  0.98657458    -0.03000
C14         C  0.36360633  0.29138717  0.93799959     0.09300
C15         C  0.40027541  0.29438640  0.90996739     0.03100
H16         H  0.34951546  0.30770055  0.01984083     0.10700
H17         H  0.40756810  0.28390443  0.87146678     0.09800
N18         N  0.47216913  0.37227752  0.09848340    -0.34100
N19         N  0.01111840  0.37306220  0.09876267    -0.26200
C20         C  0.02317752  0.39271271  0.13869497    -0.01500
C21         C  0.98955132  0.39877669  0.17181604     0.07100
C22         C  0.45826507  0.38587058  0.14408958     0.05200
H23         H  0.05425143  0.40148013  0.14360157     0.10300
H24         H  0.42755604  0.38271602  0.16016741     0.09200
N25         N  0.41272730  0.12338656  0.96213888    -0.25200
N26         N  0.43280886  0.14474058  0.93247068    -0.33100
C27         C  0.40508816  0.16368097  0.90511359     0.03100
C28         C  0.36550341  0.15372642  0.91802289     0.09100
C29         C  0.37168809  0.12798390  0.95405192    -0.04000
H30         H  0.41331876  0.18341801  0.87823809     0.09800
H31         H  0.34800532  0.11438443  0.97436114     0.11000
Cu32       Cu  0.49719414  0.14770200  0.93211201     0.44200
Cu33       Cu  0.44254994  0.09148581  0.01613375     0.42000
Cu34       Cu  0.05100842  0.10740260  0.03994155     0.43900
N35         N  0.06008173  0.15082333  0.94303038    -0.32600
N36         N  0.08025351  0.13511716  0.98181360    -0.26900
C37         C  0.12105900  0.14044727  0.97684887    -0.03000
C38         C  0.12706631  0.16025837  0.93264733     0.09300
C39         C  0.08758425  0.16641763  0.91227158     0.03100
H40         H  0.14462773  0.13094842  0.00390151     0.10700
H41         H  0.07913356  0.18185158  0.87851880     0.09800
N42         N  0.01436039  0.07907127  0.08951072    -0.34100
N43         N  0.47785727  0.06748644  0.07482149    -0.26200
C44         C  0.46405210  0.04640056  0.11194101    -0.01500
C45         C  0.49641327  0.03785829  0.14569344     0.07100
C46         C  0.02643326  0.06180901  0.13302834     0.05200
H47         H  0.43248545  0.03836097  0.11477712     0.10300
H48         H  0.05770542  0.06078386  0.14844448     0.09200
C49         C  0.24686492  0.19722915  0.83294100     0.47500
H50         H  0.24985917  0.16971529  0.83499686    -0.01500
C51         C  0.23970332  0.26195541  0.82741605     0.47600
H52         H  0.23636403  0.28945962  0.82504237    -0.01500
C53         C  0.24728157  0.21091687  0.77560695    -0.15200
C54         C  0.20615310  0.21161629  0.85650745    -0.14900
C55         C  0.28231686  0.21535867  0.86095901    -0.15300
C56         C  0.24341094  0.24495075  0.77278546    -0.15300
C57         C  0.20255654  0.24559908  0.85399125    -0.14900
C58         C  0.27819554  0.24944696  0.85806493    -0.15200
N59         N  0.17389712  0.38296483  0.46276469    -0.25200
N60         N  0.19789658  0.39310247  0.42377101    -0.33100
C61         C  0.17604764  0.41321362  0.39108481     0.03100
C62         C  0.13613356  0.41612864  0.40975991     0.09100
C63         C  0.13547684  0.39645874  0.45529366    -0.04000
H64         H  0.18903709  0.42642922  0.35781680     0.09800
H65         H  0.10995286  0.39398678  0.48271025     0.11000
Cu66       Cu  0.26091127  0.38601194  0.42047027     0.44200
Cu67       Cu  0.19831665  0.35576691  0.52750594     0.42000
Cu68       Cu  0.31270169  0.36116220  0.53734226     0.43900
N69         N  0.32372114  0.38935940  0.42900678    -0.32600
N70         N  0.34361409  0.38034366  0.47271526    -0.26900
C71         C  0.38356667  0.38843085  0.46802149    -0.03000
C72         C  0.38852700  0.40385100  0.41934179     0.09300
C73         C  0.34997287  0.40388438  0.39558016     0.03100
H74         H  0.40658563  0.38521390  0.49895412     0.10700
H75         H  0.34110258  0.41484331  0.35781540     0.09800
N76         N  0.27533773  0.33927765  0.59344758    -0.34100
N77         N  0.23495324  0.33509678  0.58897594    -0.26200
C78         C  0.22229696  0.31725515  0.63113817    -0.01500
C79         C  0.25621123  0.31061440  0.66367950     0.07100
C80         C  0.28903070  0.32515665  0.63881178     0.05200
H81         H  0.19066648  0.31036903  0.63826267     0.10300
H82         H  0.32090210  0.32481885  0.65205972     0.09200
N83         N  0.34590494  0.08178979  0.47627359    -0.25200
N84         N  0.32622815  0.06914582  0.43547406    -0.33100
C85         C  0.35365542  0.05478942  0.40214894     0.03100
C86         C  0.39302093  0.05801301  0.42285109     0.09100
C87         C  0.38694947  0.07560251  0.46978785    -0.04000
H88         H  0.34488538  0.04117394  0.36721084     0.09800
H89         H  0.41034399  0.08143747  0.49872538     0.11000
Cu90       Cu  0.26305455  0.06475833  0.43121436     0.44200
Cu91       Cu  0.31331720  0.10236389  0.54084326     0.42000
Cu92       Cu  0.20158332  0.08133275  0.54563583     0.43900
N93         N  0.20204449  0.05186878  0.43661098    -0.32600
N94         N  0.17850391  0.05782053  0.47862052    -0.26900
C95         C  0.14099992  0.04496404  0.47006595    -0.03000
C96         C  0.14162220  0.02992954  0.42050453     0.09300
C97         C  0.18078172  0.03470258  0.40075423     0.03100
H98         H  0.11586980  0.04540320  0.49849831     0.10700
H99         H  0.19325103  0.02577349  0.36337095     0.09800
N100        N  0.23236965  0.10828895  0.60340227    -0.34100
N101        N  0.27139382  0.11741935  0.60035581    -0.26200
C102        C  0.27932457  0.13729092  0.64188428    -0.01500
C103        C  0.24391960  0.14038298  0.67283405     0.07100
C104        C  0.21501253  0.12144700  0.64751550     0.05200
H105        H  0.30877994  0.14850187  0.64917055     0.10300
H106        H  0.18310457  0.11847026  0.65922074     0.09200
C107        C  0.49896776  0.44936488  0.33345462     0.48100
H108        H  0.49795598  0.42184132  0.33143300    -0.01500
C109        C  0.50954874  0.00839547  0.33579385     0.47600
H110        H  0.00528342  0.03930725  0.34193589    -0.01500
C111        C  0.50716647  0.46598737  0.27935097    -0.15200
C112        C  0.45878471  0.46621007  0.35315954    -0.14900
C113        C  0.03466765  0.46179856  0.37091815    -0.15300
C114        C  0.50895892  0.49998469  0.28206359    -0.15300
C115        C  0.45988746  0.50021943  0.35530426    -0.14900
C116        C  0.03708389  0.49579775  0.37078628    -0.15200
C117        C  0.43192866  0.04117819  0.40413708    -0.14400
C118        C  0.43109153  0.01714317  0.36721019    -0.29500
H119        H  0.46083103  0.04642270  0.42399040     0.14700
H120        H  0.39328335  0.51311210  0.35387992     0.15200
C121        C  0.10983330  0.01025064  0.39428596    -0.14400
C122        C  0.06922919  0.01372363  0.40470075    -0.29500
H123        H  0.12012952  0.99337439  0.36302803     0.14700
H124        H  0.05786406  0.03276993  0.43189507     0.15200
C125        C  0.42559503  0.42067062  0.40047825    -0.14400
C126        C  0.42225627  0.44712966  0.36810540    -0.29500
H127        H  0.45556537  0.41304161  0.41673279     0.14700
H128        H  0.39191688  0.45641260  0.35563943     0.15200
C129        C  0.10468016  0.43969498  0.38790312    -0.14400
C130        C  0.06413824  0.43867235  0.39855645    -0.29500
H131        H  0.11534754  0.45797246  0.35953603     0.14700
H132        H  0.05213381  0.41874959  0.42266730     0.15200
C133        C  0.23722796  0.16028203  0.72160834    -0.14400
C134        C  0.25489908  0.18973136  0.72809684    -0.29500
H135        H  0.21509903  0.15178636  0.75077744     0.14700
H136        H  0.27382614  0.19953201  0.69634693     0.15200
C137        C  0.23998646  0.26357599  0.72187056    -0.14400
C138        C  0.25803038  0.29278194  0.71490368    -0.29500
H139        H  0.22404811  0.25232572  0.68879722     0.14700
H140        H  0.27761953  0.30242471  0.74595535     0.15200
C141        C  0.17004344  0.19111628  0.86923007    -0.14400
C142        C  0.16688402  0.17416905  0.91494048    -0.29500
H143        H  0.14345047  0.19374283  0.84309865     0.14700
H144        H  0.19344995  0.17201513  0.94130677     0.15200
C145        C  0.32496508  0.16827521  0.90010447    -0.14400
C146        C  0.32205629  0.19853930  0.87756586    -0.29500
H147        H  0.29708288  0.15474415  0.90819305     0.14700
H148        H  0.35006369  0.21240844  0.87265069     0.15200
C149        C  0.52095044  0.01573483  0.23268081    -0.14400
C150        C  0.49428722  0.01505793  0.19173993    -0.29500
H151        H  0.04237071  0.03957666  0.23872232     0.14700
H152        H  0.46858520  0.99830902  0.19333669     0.15200
C153        C  0.16341670  0.26395609  0.86812206    -0.14400
C154        C  0.16215113  0.29058758  0.90009769    -0.29500
H155        H  0.13459588  0.25302601  0.85625032     0.14700
H156        H  0.19086970  0.30017895  0.91534578     0.15200
C157        C  0.32747070  0.27167528  0.92345131    -0.14400
C158        C  0.31111697  0.27241205  0.87438321    -0.29500
H159        H  0.31407263  0.25602149  0.95377620     0.14700
H160        H  0.32200003  0.29012399  0.84530435     0.15200
C161        C  0.51207124  0.44705969  0.22903265    -0.14400
C162        C  0.98751519  0.41853505  0.22112342    -0.29500
H163        H  0.53414063  0.45552902  0.19978067     0.14700
H164        H  0.96257420  0.41378884  0.24885833     0.15200
N165        N  0.07331766  0.83816044  0.96003528    -0.25200
N166        N  0.05236036  0.81992617  0.92641753    -0.33100
C167        C  0.07931850  0.80260853  0.89565406     0.03100
C168        C  0.11925974  0.81031919  0.91045808     0.09100
C169        C  0.11417262  0.83317208  0.95104503    -0.04000
H170        H  0.07035959  0.78483307  0.86602371     0.09800
H171        H  0.13842693  0.84377431  0.97458816     0.11000
Cu172      Cu  0.48944982  0.81303971  0.92492507     0.44200
Cu173      Cu  0.04563069  0.86433283  0.02249986     0.42000
Cu174      Cu  0.44015322  0.83624892  0.04847922     0.43900
N175        N  0.42673391  0.80636720  0.94028982    -0.32600
N176        N  0.40968765  0.81281028  0.98704873    -0.26900
C177        C  0.37062532  0.80211773  0.98721583    -0.03000
C178        C  0.36222205  0.78908855  0.93784876     0.09300
C179        C  0.39850508  0.79209358  0.90901786     0.03100
H180        H  0.35001416  0.80334731  0.02108129     0.10700
H181        H  0.40470587  0.78272306  0.86950807     0.09800
N182        N  0.47382245  0.86526627  0.10002664    -0.34100
N183        N  0.01229707  0.87983141  0.08925008    -0.26200
C184        C  0.02485482  0.90004579  0.12828252    -0.01500
C185        C  0.99422814  0.90184242  0.16682359     0.07100
C186        C  0.46077727  0.87881966  0.14607980     0.05200
H187        H  0.05450188  0.91180477  0.12911497     0.10300
H188        H  0.43040238  0.87562199  0.16315780     0.09200
N189        N  0.40917112  0.62511554  0.95812078    -0.25200
N190        N  0.42966092  0.64492996  0.92618826    -0.33100
C191        C  0.40213688  0.66288544  0.89685990     0.03100
C192        C  0.36240009  0.65384934  0.91097815     0.09100
C193        C  0.36821788  0.62967315  0.94961920    -0.04000
H194        H  0.41051979  0.68159088  0.86821215     0.09800
H195        H  0.34434974  0.61743122  0.97179246     0.11000
Cu196      Cu  0.49429619  0.64779566  0.92663266     0.44200
Cu197      Cu  0.43774014  0.59567974  0.01608340     0.42000
Cu198      Cu  0.05123128  0.60436042  0.03409201     0.43900
N199        N  0.06017560  0.64614939  0.93524424    -0.32600
N200        N  0.08034523  0.63175205  0.97525471    -0.26900
C201        C  0.12095041  0.63804669  0.97076052    -0.03000
C202        C  0.12670958  0.65723285  0.92573687     0.09300
C203        C  0.08735550  0.66185391  0.90426513     0.03100
H204        H  0.14448767  0.62980490  0.99881557     0.10700
H205        H  0.07863957  0.67633650  0.86958278     0.09800
N206        N  0.01502357  0.57448154  0.08200928    -0.34100
N207        N  0.47181797  0.57249479  0.07629146    -0.26200
C208        C  0.45712211  0.55289383  0.11486172    -0.01500
C209        C  0.48941828  0.54374925  0.14826727     0.07100
C210        C  0.02675196  0.55782417  0.12628150     0.05200
H211        H  0.42512935  0.54606240  0.11860191     0.10300
H212        H  0.05737253  0.55837059  0.14358220     0.09200
C213        C  0.24372638  0.69924209  0.82818859     0.47500
H214        H  0.24673644  0.67169573  0.82802501    -0.01500
C215        C  0.23663661  0.76405073  0.82751304     0.47600
H216        H  0.23359227  0.79159537  0.82686903    -0.01500
C217        C  0.24344075  0.71465653  0.77204914    -0.15200
C218        C  0.20334489  0.71285474  0.85339753    -0.14900
C219        C  0.27943978  0.71646737  0.85693845    -0.15300
C220        C  0.23989166  0.74869820  0.77175733    -0.15300
C221        C  0.19954654  0.74692563  0.85322637    -0.14900
C222        C  0.27534474  0.75057323  0.85668616    -0.15200
N223        N  0.17565335  0.88082869  0.45896460    -0.25200
N224        N  0.19782927  0.88791220  0.41645522    -0.33100
C225        C  0.17283136  0.90130414  0.37896636     0.03100
C226        C  0.13312994  0.90342395  0.39899806     0.09100
C227        C  0.13589677  0.89031728  0.44991129    -0.04000
H228        H  0.18326438  0.91068815  0.34107776     0.09800
H229        H  0.11106815  0.88830622  0.47846736     0.11000
Cu230      Cu  0.26174561  0.88451160  0.41346844     0.44200
Cu231      Cu  0.20138047  0.85945558  0.52751795     0.42000
Cu232      Cu  0.31454549  0.85801746  0.53187605     0.43900
N233        N  0.32514200  0.88692969  0.42287366    -0.32600
N234        N  0.34491901  0.87655292  0.46604194    -0.26900
C235        C  0.38524180  0.88351090  0.46137229    -0.03000
C236        C  0.39083083  0.89969949  0.41351090     0.09300
C237        C  0.35208316  0.90134126  0.39002028     0.03100
H238        H  0.40822380  0.87910218  0.49205675     0.10700
H239        H  0.34369688  0.91318447  0.35274974     0.09800
N240        N  0.27740348  0.84042360  0.59236951    -0.34100
N241        N  0.23654134  0.83923632  0.58996077    -0.26200
C242        C  0.22285248  0.82352082  0.63363982    -0.01500
C243        C  0.25670643  0.81508390  0.66521318     0.07100
C244        C  0.29061547  0.82639699  0.63809872     0.05200
H245        H  0.19071213  0.81874351  0.64190899     0.10300
H246        H  0.32276223  0.82347533  0.64974108     0.09200
N247        N  0.33677691  0.59070324  0.46758831    -0.25200
N248        N  0.31779170  0.57898355  0.42545442    -0.33100
C249        C  0.34579286  0.56341803  0.39407725     0.03100
C250        C  0.38449559  0.56519179  0.41749136     0.09100
C251        C  0.37762547  0.58300336  0.46385684    -0.04000
H252        H  0.33796471  0.55029442  0.35824559     0.09800
H253        H  0.40015499  0.58795037  0.49435864     0.11000
Cu254      Cu  0.25394160  0.57862842  0.41648419     0.44200
Cu255      Cu  0.30432723  0.61161447  0.53134121     0.42000
Cu256      Cu  0.19480748  0.58935237  0.53599361     0.43900
N257        N  0.19147123  0.56844417  0.42157701    -0.32600
N258        N  0.17035622  0.56998377  0.46653408    -0.26900
C259        C  0.13224749  0.55832509  0.45816993    -0.03000
C260        C  0.12922543  0.54945070  0.40519096     0.09300
C261        C  0.16720624  0.55640897  0.38321733     0.03100
H262        H  0.10846885  0.55670329  0.48824372     0.10700
H263        H  0.17704683  0.55181893  0.34274335     0.09800
N264        N  0.22439742  0.61625585  0.59461357    -0.34100
N265        N  0.26323334  0.62570698  0.59155834    -0.26200
C266        C  0.27132346  0.64503236  0.63356499    -0.01500
C267        C  0.23607253  0.64760101  0.66477012     0.07100
C268        C  0.20708554  0.62888851  0.63912732     0.05200
H269        H  0.30081724  0.65614207  0.64102769     0.10300
H270        H  0.17529529  0.62555655  0.65105625     0.09200
C271        C  0.50495348  0.94383114  0.33235885     0.48100
H272        H  0.50333701  0.91633300  0.33082084    -0.01500
C273        C  0.50186697  0.51399064  0.33815090     0.47600
H274        H  0.00620816  0.54097932  0.33468787    -0.01500
C275        C  0.51318934  0.95994271  0.27784738    -0.15200
C276        C  0.46513204  0.96141154  0.35191655    -0.14900
C277        C  0.03975454  0.96058849  0.37031738    -0.15300
C278        C  0.51592379  0.99392103  0.27981634    -0.15300
C279        C  0.46736224  0.99539160  0.35366675    -0.14900
C280        C  0.03893495  0.99455692  0.37412119    -0.15200
C281        C  0.42350693  0.54759142  0.40116033    -0.14400
C282        C  0.42278531  0.52125797  0.36857532    -0.29500
H283        H  0.45247836  0.55457154  0.41921824     0.14700
H284        H  0.40188249  0.01068421  0.34959739     0.15200
C285        C  0.09408113  0.53469628  0.37718869    -0.14400
C286        C  0.06849423  0.51380928  0.40137591    -0.29500
H287        H  0.09149630  0.53862164  0.33456024     0.14700
H288        H  0.07371291  0.50691504  0.44264861     0.15200
C289        C  0.42897705  0.91557430  0.39554909    -0.14400
C290        C  0.42737200  0.94322960  0.36566489    -0.29500
H291        H  0.45850904  0.90620425  0.41096920     0.14700
H292        H  0.39749175  0.95405146  0.35433063     0.15200
C293        C  0.09727982  0.91970841  0.37240752    -0.14400
C294        C  0.06993632  0.93890140  0.39914415    -0.29500
H295        H  0.09631804  0.91948106  0.32923916     0.14700
H296        H  0.07357594  0.94240928  0.44163914     0.15200
C297        C  0.22999955  0.66654275  0.71444948    -0.14400
C298        C  0.24973390  0.69483926  0.72305268    -0.29500
H299        H  0.20726621  0.65818420  0.74295136     0.14700
H300        H  0.26941150  0.70477375  0.69219564     0.15200
C301        C  0.23671809  0.76875202  0.72231930    -0.14400
C302        C  0.25759534  0.79673114  0.71598708    -0.29500
H303        H  0.21910801  0.75914541  0.68928213     0.14700
H304        H  0.27876658  0.80449990  0.74673983     0.15200
C305        C  0.16771458  0.69163454  0.86502815    -0.14400
C306        C  0.16594029  0.67229083  0.90842795    -0.29500
H307        H  0.14055819  0.69530391  0.84016023     0.14700
H308        H  0.19304561  0.66931230  0.93372465     0.15200
C309        C  0.32199947  0.66859021  0.89315729    -0.14400
C310        C  0.31926827  0.69911082  0.87163016    -0.29500
H311        H  0.29398773  0.65527183  0.90148132     0.14700
H312        H  0.34740120  0.71286496  0.86688618     0.15200
C313        C  0.51370676  0.52207255  0.23536354    -0.14400
C314        C  0.48675669  0.52151278  0.19480143    -0.29500
H315        H  0.04024096  0.53785584  0.23323937     0.14700
H316        H  0.46077624  0.50504587  0.19680204     0.15200
C317        C  0.16037372  0.76482850  0.86895854    -0.14400
C318        C  0.15899906  0.79490844  0.89187097    -0.29500
H319        H  0.13168237  0.75183631  0.86445901     0.14700
H320        H  0.18758047  0.80730091  0.90061271     0.15200
C321        C  0.32506402  0.77083446  0.92284387    -0.14400
C322        C  0.30865913  0.77280484  0.87391022    -0.29500
H323        H  0.31115596  0.75500622  0.95253899     0.14700
H324        H  0.32021447  0.79059387  0.84541438     0.15200
C325        C  0.51683143  0.94052981  0.22793677    -0.14400
C326        C  0.99381658  0.91985256  0.21802022    -0.29500
H327        H  0.53896119  0.94820652  0.19818383     0.14700
H328        H  0.97138795  0.91233363  0.24754714     0.15200
N329        N  0.57548738  0.33727842  0.96463509    -0.25200
N330        N  0.55462041  0.32048029  0.92896757    -0.33100
C331        C  0.58164409  0.30366367  0.89760408     0.03100
C332        C  0.62158072  0.31012397  0.91405213     0.09100
C333        C  0.61640257  0.33177138  0.95637469    -0.04000
H334        H  0.57266417  0.28711607  0.86619910     0.09800
H335        H  0.64058279  0.34134804  0.98120023     0.11000
Cu336      Cu  0.99051797  0.31305253  0.93188415     0.44200
Cu337      Cu  0.54713618  0.36317263  0.02734528     0.42000
Cu338      Cu  0.93743976  0.33956591  0.05127416     0.43900
N339        N  0.92682472  0.30836370  0.94344088    -0.32600
N340        N  0.90817252  0.31643786  0.98856507    -0.26900
C341        C  0.86874156  0.30663991  0.98688142    -0.03000
C342        C  0.86177947  0.29237646  0.93799669     0.09300
C343        C  0.89931462  0.29380039  0.91139703     0.03100
H344        H  0.84702521  0.30890444  0.01948610     0.10700
H345        H  0.90683395  0.28292557  0.87324168     0.09800
N346        N  0.97147308  0.36671474  0.10501171    -0.34100
N347        N  0.51094787  0.38081835  0.09067756    -0.26200
C348        C  0.52248034  0.40045433  0.13101349    -0.01500
C349        C  0.48944727  0.40412366  0.16596687     0.07100
C350        C  0.95744340  0.38176421  0.14942575     0.05200
H351        H  0.55298286  0.41046086  0.13530487     0.10300
H352        H  0.92593278  0.38087261  0.16386276     0.09200
N353        N  0.91098951  0.12702405  0.96428330    -0.25200
N354        N  0.93124966  0.14795261  0.93403891    -0.33100
C355        C  0.90364190  0.16625052  0.90546270     0.03100
C356        C  0.86402252  0.15626490  0.91820582     0.09100
C357        C  0.87002832  0.13120713  0.95539208    -0.04000
H358        H  0.91195656  0.18564335  0.87799368     0.09800
H359        H  0.84626796  0.11790972  0.97607788     0.11000
Cu360      Cu  0.99567907  0.15139178  0.93475255     0.44200
Cu361      Cu  0.94008998  0.09662633  0.02049856     0.42000
Cu362      Cu  0.55389915  0.10156113  0.03414431     0.43900
N363        N  0.56160373  0.14670106  0.93895316    -0.32600
N364        N  0.58241918  0.13025261  0.97640617    -0.26900
C365        C  0.62313780  0.13578856  0.97059970    -0.03000
C366        C  0.62833043  0.15663515  0.92737375     0.09300
C367        C  0.58848891  0.16300973  0.90834539     0.03100
H368        H  0.64717200  0.12592119  0.99665550     0.10700
H369        H  0.57929064  0.17907012  0.87566251     0.09800
N370        N  0.51769711  0.07226217  0.08307780    -0.34100
N371        N  0.97457754  0.07425156  0.08101519    -0.26200
C372        C  0.96046147  0.05356495  0.11843407    -0.01500
C373        C  0.99264568  0.04518922  0.15242719     0.07100
C374        C  0.53003234  0.05468583  0.12623100     0.05200
H375        H  0.92896784  0.04531354  0.12081655     0.10300
H376        H  0.56128604  0.05385262  0.14171049     0.09200
C377        C  0.74538842  0.19884053  0.83168509     0.47500
H378        H  0.74855020  0.17132215  0.83346438    -0.01500
C379        C  0.73799200  0.26358801  0.82664729     0.47600
H380        H  0.73469249  0.29109360  0.82423998    -0.01500
C381        C  0.74528099  0.21265435  0.77444588    -0.15200
C382        C  0.70475878  0.21305489  0.85573913    -0.14900
C383        C  0.78090578  0.21704625  0.85945339    -0.15300
C384        C  0.74136988  0.24666946  0.77196113    -0.15300
C385        C  0.70102386  0.24711837  0.85358287    -0.14900
C386        C  0.77668346  0.25110733  0.85678304    -0.15200
N387        N  0.67360314  0.38475587  0.46290684    -0.25200
N388        N  0.69779109  0.39643169  0.42528395    -0.33100
C389        C  0.67572467  0.41683858  0.39330955     0.03100
C390        C  0.63542034  0.41817299  0.41081695     0.09100
C391        C  0.63481110  0.39741682  0.45509233    -0.04000
H392        H  0.68865689  0.43103316  0.36107173     0.09800
H393        H  0.60892848  0.39353374  0.48143636     0.11000
Cu394      Cu  0.76086673  0.38977596  0.42183620     0.44200
Cu395      Cu  0.69797770  0.35652669  0.52648574     0.42000
Cu396      Cu  0.81254966  0.36207781  0.53649595     0.43900
N397        N  0.82381101  0.39215618  0.42976525    -0.32600
N398        N  0.84371443  0.38214435  0.47292065    -0.26900
C399        C  0.88382731  0.38976883  0.46834391    -0.03000
C400        C  0.88890961  0.40586253  0.42025516     0.09300
C401        C  0.85024200  0.40679496  0.39672722     0.03100
H402        H  0.90694671  0.38563657  0.49892477     0.10700
H403        H  0.84145600  0.41834789  0.35938367     0.09800
N404        N  0.77512618  0.33997555  0.59216552    -0.34100
N405        N  0.73473092  0.33583568  0.58772777    -0.26200
C406        C  0.72205022  0.31811668  0.62997904    -0.01500
C407        C  0.75596783  0.31150060  0.66250141     0.07100
C408        C  0.78882081  0.32590220  0.63754408     0.05200
H409        H  0.69040274  0.31130470  0.63717401     0.10300
H410        H  0.82069819  0.32555453  0.65077337     0.09200
N411        N  0.84127879  0.08316367  0.47455909    -0.25200
N412        N  0.82205173  0.07126541  0.43276700    -0.33100
C413        C  0.84980471  0.05631655  0.40043556     0.03100
C414        C  0.88873451  0.05863065  0.42277672     0.09100
C415        C  0.88223687  0.07613792  0.46959220    -0.04000
H416        H  0.84169677  0.04337609  0.36453531     0.09800
H417        H  0.90520740  0.08152060  0.49933344     0.11000
Cu418      Cu  0.75857675  0.07012901  0.42482177     0.44200
Cu419      Cu  0.80864577  0.10422641  0.53846717     0.42000
Cu420      Cu  0.69755939  0.08420226  0.54143603     0.43900
N421        N  0.69646756  0.05990058  0.42861613    -0.32600
N422        N  0.67408233  0.06295362  0.47237565    -0.26900
C423        C  0.63595976  0.05158186  0.46269503    -0.03000
C424        C  0.63451225  0.04135412  0.41013359     0.09300
C425        C  0.67330271  0.04713333  0.38985909     0.03100
H426        H  0.61103667  0.05130593  0.49137783     0.10700
H427        H  0.68428830  0.04162358  0.35015433     0.09800
N428        N  0.72763970  0.11140470  0.59989023    -0.34100
N429        N  0.76689351  0.11995228  0.59747757    -0.26200
C430        C  0.77502537  0.13962432  0.63916855    -0.01500
C431        C  0.73944148  0.14332874  0.66962555     0.07100
C432        C  0.71019953  0.12492034  0.64374188     0.05200
H433        H  0.80478874  0.15018794  0.64699732     0.10300
H434        H  0.67814446  0.12237231  0.65509828     0.09200
C435        C  0.00077985  0.44881666  0.33465385     0.48100
H436        H  0.99934106  0.42128178  0.33456066    -0.01500
C437        C  0.00571579  0.01175046  0.33947322     0.47600
H438        H  0.51129326  0.03589521  0.33722664    -0.01500
C439        C  0.00921692  0.46382517  0.27943850    -0.15200
C440        C  0.96087506  0.46655635  0.35305193    -0.14900
C441        C  0.53268689  0.46168873  0.37067344    -0.15300
C442        C  0.01170871  0.49784724  0.27969574    -0.15300
C443        C  0.96247678  0.50052384  0.35260270    -0.14900
C444        C  0.53435231  0.49570468  0.37310212    -0.15200
C445        C  0.92779085  0.04200902  0.40454907    -0.14400
C446        C  0.92713136  0.01591247  0.37142435    -0.29500
H447        H  0.95693256  0.04958717  0.42144724     0.14700
H448        H  0.89705221  0.51542753  0.34271112     0.15200
C449        C  0.59985778  0.02722699  0.38039284    -0.14400
C450        C  0.57257524  0.00725228  0.40325201    -0.29500
H451        H  0.59905612  0.03076240  0.33756816     0.14700
H452        H  0.57584460  0.00059148  0.44492558     0.15200
C453        C  0.92641908  0.42207091  0.40145333    -0.14400
C454        C  0.92380371  0.44837169  0.36869225    -0.29500
H455        H  0.95619934  0.41394855  0.41773207     0.14700
H456        H  0.89370197  0.45822482  0.35628463     0.15200
C457        C  0.60331943  0.44121674  0.38915447    -0.14400
C458        C  0.56258867  0.43822639  0.39699478    -0.29500
H459        H  0.61383715  0.46090109  0.36325065     0.14700
H460        H  0.55103532  0.41690054  0.41820507     0.15200
C461        C  0.73320683  0.16295218  0.71886742    -0.14400
C462        C  0.75238696  0.19166413  0.72656344    -0.29500
H463        H  0.71043045  0.15487608  0.74752348     0.14700
H464        H  0.77203886  0.20121485  0.69535369     0.15200
C465        C  0.73778627  0.26540637  0.72132080    -0.14400
C466        C  0.75778784  0.29363723  0.71362771    -0.29500
H467        H  0.72030980  0.25486203  0.68894301     0.14700
H468        H  0.77873885  0.30233320  0.74396293     0.15200
C469        C  0.66876957  0.19229492  0.86799980    -0.14400
C470        C  0.66765569  0.17146415  0.90966184    -0.29500
H471        H  0.64094766  0.19719920  0.84487557     0.14700
H472        H  0.69541044  0.16698976  0.93329659     0.15200
C473        C  0.82354296  0.17041459  0.89953056    -0.14400
C474        C  0.82066348  0.20037906  0.87610641    -0.29500
H475        H  0.79565959  0.15697207  0.90799622     0.14700
H476        H  0.84863970  0.21424745  0.87088877     0.15200
C477        C  0.01831684  0.02138204  0.23730692    -0.14400
C478        C  0.99056689  0.02195283  0.19769861    -0.29500
H479        H  0.54424154  0.03455674  0.23417727     0.14700
H480        H  0.96452158  0.00554674  0.19950363     0.15200
C481        C  0.66206321  0.26555807  0.86881398    -0.14400
C482        C  0.66122691  0.29463825  0.89492394    -0.29500
H483        H  0.63304975  0.25348185  0.86184065     0.14700
H484        H  0.69010556  0.30590573  0.90589022     0.15200
C485        C  0.82506281  0.27355335  0.92278868    -0.14400
C486        C  0.80965699  0.27398371  0.87323689    -0.29500
H487        H  0.81056073  0.25854390  0.95309408     0.14700
H488        H  0.82171613  0.29094480  0.84381097     0.15200
C489        C  0.01334425  0.44331111  0.23077054    -0.14400
C490        C  0.48720791  0.42203888  0.21714440    -0.29500
H491        H  0.03583408  0.45022314  0.20094377     0.14700
H492        H  0.46271397  0.41566338  0.24461481     0.15200
N493        N  0.57451005  0.83286782  0.96214675    -0.25200
N494        N  0.55384431  0.81628563  0.92603608    -0.33100
C495        C  0.58114829  0.80000969  0.89433514     0.03100
C496        C  0.62093568  0.80671899  0.91120153     0.09100
C497        C  0.61542863  0.82782184  0.95398295    -0.04000
H498        H  0.57250266  0.78359862  0.86258003     0.09800
H499        H  0.63940069  0.83723736  0.97932159     0.11000
Cu500      Cu  0.98820879  0.81582387  0.92785087     0.44200
Cu501      Cu  0.54658529  0.85758419  0.02573021     0.42000
Cu502      Cu  0.94047971  0.83878051  0.05174043     0.43900
N503        N  0.92600728  0.80815607  0.94427105    -0.32600
N504        N  0.90917704  0.81444790  0.99119870    -0.26900
C505        C  0.87032488  0.80311237  0.99163796    -0.03000
C506        C  0.86195982  0.78979620  0.94226226     0.09300
C507        C  0.89803436  0.79338808  0.91327201     0.03100
H508        H  0.84980500  0.80413686  0.02560481     0.10700
H509        H  0.90431257  0.78415049  0.87369832     0.09800
N510        N  0.97510238  0.86905391  0.10115415    -0.34100
N511        N  0.51221530  0.87420543  0.09076259    -0.26200
C512        C  0.52446231  0.89395461  0.13047487    -0.01500
C513        C  0.49223728  0.89742456  0.16659696     0.07100
C514        C  0.96337278  0.88177453  0.14838079     0.05200
H515        H  0.55482381  0.90440746  0.13325707     0.10300
H516        H  0.93423077  0.87700418  0.16775661     0.09200
N517        N  0.91211421  0.62032902  0.95456381    -0.25200
N518        N  0.93202779  0.64166714  0.92469394    -0.33100
C519        C  0.90415319  0.66065693  0.89772901     0.03100
C520        C  0.86471582  0.65073063  0.91126103     0.09100
C521        C  0.87105770  0.62491136  0.94698554    -0.04000
H522        H  0.91211232  0.68066720  0.87122037     0.09800
H523        H  0.84750462  0.61163247  0.96809969     0.11000
Cu524      Cu  0.99619041  0.64541724  0.92538325     0.44200
Cu525      Cu  0.94180177  0.58964823  0.00996512     0.42000
Cu526      Cu  0.54915114  0.60282903  0.03216923     0.43900
N527        N  0.55873606  0.64729154  0.93615190    -0.32600
N528        N  0.57864319  0.63119032  0.97478999    -0.26900
C529        C  0.61942214  0.63700594  0.97092311    -0.03000
C530        C  0.62573180  0.65756264  0.92764211     0.09300
C531        C  0.58641773  0.66362227  0.90664297     0.03100
H532        H  0.64275027  0.62743123  0.99824519     0.10700
H533        H  0.57818128  0.67956215  0.87340884     0.09800
N534        N  0.51206215  0.57580542  0.08337582    -0.34100
N535        N  0.97597670  0.56797359  0.07148011    -0.26200
C536        C  0.96206953  0.54673792  0.10826561    -0.01500
C537        C  0.99356156  0.53980803  0.14406901     0.07100
C538        C  0.52387490  0.55866658  0.12716723     0.05200
H539        H  0.93102557  0.53742913  0.10934210     0.10300
H540        H  0.55532827  0.55669334  0.14185894     0.09200
C541        C  0.74641932  0.69656750  0.83197691     0.47500
H542        H  0.74925546  0.66903337  0.83309288    -0.01500
C543        C  0.73949125  0.76134014  0.82796568     0.47600
H544        H  0.73635526  0.78886480  0.82586148    -0.01500
C545        C  0.74768394  0.71086375  0.77515606    -0.15200
C546        C  0.70537751  0.71064465  0.85487658    -0.14900
C547        C  0.78147059  0.71439072  0.86136574    -0.15300
C548        C  0.74419358  0.74487291  0.77311231    -0.15300
C549        C  0.70176422  0.74466737  0.85287701    -0.14900
C550        C  0.77736780  0.74851183  0.85957320    -0.15200
N551        N  0.68096334  0.88021894  0.46124572    -0.25200
N552        N  0.70434286  0.88950331  0.42106070    -0.33100
C553        C  0.68176098  0.90870002  0.38773546     0.03100
C554        C  0.64202734  0.91173543  0.40721265     0.09100
C555        C  0.64231879  0.89328401  0.45399689    -0.04000
H556        H  0.69402029  0.92101355  0.35311947     0.09800
H557        H  0.61720614  0.89122653  0.48214165     0.11000
Cu558      Cu  0.76739724  0.88139752  0.41603836     0.44200
Cu559      Cu  0.70601182  0.85395988  0.52630613     0.42000
Cu560      Cu  0.82087479  0.85209672  0.53026300     0.43900
N561        N  0.83076116  0.88276943  0.42299907    -0.32600
N562        N  0.85110788  0.87208075  0.46548228    -0.26900
C563        C  0.89111698  0.88004613  0.46074324    -0.03000
C564        C  0.89579358  0.89708374  0.41339113     0.09300
C565        C  0.85688953  0.89816230  0.39035791     0.03100
H566        H  0.91434674  0.87590839  0.49118056     0.10700
H567        H  0.84761132  0.91069330  0.35399541     0.09800
N568        N  0.78316699  0.83343726  0.58932696    -0.34100
N569        N  0.74224042  0.83238314  0.58710220    -0.26200
C570        C  0.72868783  0.81675335  0.63095588    -0.01500
C571        C  0.76261251  0.80824301  0.66238233     0.07100
C572        C  0.79646164  0.81936845  0.63499100     0.05200
H573        H  0.69650590  0.81253840  0.63985217     0.10300
H574        H  0.82860614  0.81676083  0.64679445     0.09200
N575        N  0.83578957  0.58572880  0.46873562    -0.25200
N576        N  0.81659230  0.57256290  0.42795361    -0.33100
C577        C  0.84473639  0.55756061  0.39602841     0.03100
C578        C  0.88381943  0.56135747  0.41769430     0.09100
C579        C  0.87685767  0.57952115  0.46367426    -0.04000
H580        H  0.83682318  0.54358559  0.36109596     0.09800
H581        H  0.89973215  0.58602650  0.49288721     0.11000
Cu582      Cu  0.75263951  0.57118067  0.42143947     0.44200
Cu583      Cu  0.80376828  0.60719131  0.53242157     0.42000
Cu584      Cu  0.69420158  0.58559323  0.54156737     0.43900
N585        N  0.68950928  0.56400441  0.42753314    -0.32600
N586        N  0.66843236  0.56691911  0.47240186    -0.26900
C587        C  0.62933560  0.55738743  0.46396294    -0.03000
C588        C  0.62574103  0.54860936  0.41102511     0.09300
C589        C  0.66431351  0.55329007  0.38918936     0.03100
H590        H  0.60530246  0.55719437  0.49388250     0.10700
H591        H  0.67383293  0.54805110  0.34878949     0.09800
N592        N  0.72558991  0.61202795  0.59916719    -0.34100
N593        N  0.76435234  0.62141042  0.59442540    -0.26200
C594        C  0.77366976  0.64056002  0.63621897    -0.01500
C595        C  0.73931314  0.64304070  0.66908367     0.07100
C596        C  0.70958279  0.62449605  0.64455766     0.05200
H597        H  0.80336801  0.65163519  0.64235951     0.10300
H598        H  0.67809888  0.62123899  0.65782023     0.09200
C599        C  0.00687231  0.94708564  0.33266952     0.48100
H600        H  0.00754878  0.91953443  0.33026935    -0.01500
C601        C  0.00476238  0.51344360  0.33471185     0.47600
H602        H  0.50296126  0.54151448  0.33998379    -0.01500
C603        C  0.01384109  0.96447733  0.27904701    -0.15200
C604        C  0.96553816  0.96217315  0.35248566    -0.14900
C605        C  0.53928073  0.95595394  0.36900584    -0.15300
C606        C  0.01397632  0.99853660  0.28296448    -0.15300
C607        C  0.96475997  0.99620533  0.35599603    -0.14900
C608        C  0.54173752  0.98990033  0.37078369    -0.15200
C609        C  0.92373907  0.54537232  0.40076584    -0.14400
C610        C  0.92524562  0.52200558  0.36287256    -0.29500
H611        H  0.95160292  0.55067898  0.42290280     0.14700
H612        H  0.89761755  0.00707237  0.35793749     0.15200
C613        C  0.58973649  0.53553104  0.38286366    -0.14400
C614        C  0.56514633  0.51325475  0.40531679    -0.29500
H615        H  0.58644109  0.54112510  0.34077430     0.14700
H616        H  0.57138113  0.50461551  0.44555597     0.15200
C617        C  0.93281963  0.91477720  0.39610913    -0.14400
C618        C  0.92948658  0.94177638  0.36487811    -0.29500
H619        H  0.96265978  0.90740044  0.41299777     0.14700
H620        H  0.89920877  0.95063251  0.35151252     0.15200
C621        C  0.60978186  0.93441650  0.38486050    -0.14400
C622        C  0.56922297  0.93252328  0.39528620    -0.29500
H623        H  0.61993796  0.95297611  0.35663848     0.14700
H624        H  0.55771803  0.91232676  0.41923581     0.15200
C625        C  0.73427738  0.66207391  0.71890566    -0.14400
C626        C  0.75457943  0.69015030  0.72714490    -0.29500
H627        H  0.71129382  0.65426436  0.74749349     0.14700
H628        H  0.77453925  0.69959205  0.69618011     0.15200
C629        C  0.74150987  0.76379279  0.72252712    -0.14400
C630        C  0.76340377  0.79102705  0.71419415    -0.29500
H631        H  0.72336888  0.75380432  0.69028623     0.14700
H632        H  0.78499969  0.79905649  0.74426619     0.15200
C633        C  0.66920668  0.68981822  0.86636358    -0.14400
C634        C  0.66557056  0.67223579  0.91145418    -0.29500
H635        H  0.64301027  0.69243202  0.83958423     0.14700
H636        H  0.69175862  0.66999149  0.93841750     0.15200
C637        C  0.82419941  0.66589666  0.89516374    -0.14400
C638        C  0.82112288  0.69736733  0.87754740    -0.29500
H639        H  0.79650865  0.65169010  0.90076675     0.14700
H640        H  0.84898969  0.71169727  0.87571368     0.15200
C641        C  0.01724337  0.51880354  0.23183458    -0.14400
C642        C  0.99110916  0.51740781  0.19049311    -0.29500
H643        H  0.53737366  0.54060346  0.23650730     0.14700
H644        H  0.96565995  0.50040866  0.19198711     0.15200
C645        C  0.66236398  0.76284412  0.86622153    -0.14400
C646        C  0.66086677  0.79170690  0.89267255    -0.29500
H647        H  0.63363736  0.75060192  0.85796629     0.14700
H648        H  0.68946039  0.80297124  0.90485975     0.15200
C649        C  0.82505681  0.77105720  0.92694687    -0.14400
C650        C  0.81029015  0.77121563  0.87697806    -0.29500
H651        H  0.81013321  0.75627838  0.95718565     0.14700
H652        H  0.82292903  0.78794530  0.84763379     0.15200
C653        C  0.01747848  0.94605147  0.22794755    -0.14400
C654        C  0.49092752  0.91598232  0.21716891    -0.29500
H655        H  0.03732635  0.95559447  0.19697138     0.14700
H656        H  0.46651366  0.91038959  0.24522630     0.15200
loop_ 
_geom_bond_atom_site_label_1 
_geom_bond_atom_site_label_2 
_geom_bond_distance 
_geom_bond_site_symmetry_2 
_ccdc_geom_bond_type 
N1            N2   1.323       .  A
N1            C5   1.348       .  A
N1           Cu9   2.083   1_556  S
N2            C3   1.347       .  A
N2         Cu336   2.092   1_455  S
C3            C4   1.389       .  A
C3            H6   1.081       .  S
C4            C5   1.385       .  A
C4          C154   1.487       .  S
C5            H7   1.082       .  S
Cu8          N11   2.087       .  S
Cu8         N330   2.088       .  S
Cu9          N19   2.082       .  S
Cu10         N12   2.080   1_554  S
Cu10         N18   2.080       .  S
N11          N12   1.322       .  A
N11          C15   1.349       .  A
N12          C13   1.347       .  A
C13          C14   1.383       .  A
C13          H16   1.082   1_556  S
C14          C15   1.387       .  A
C14         C157   1.479       .  S
C15          H17   1.082       .  S
N18         N347   1.324       .  A
N18          C22   1.345       .  A
N19         N346   1.323   1_455  A
N19          C20   1.347       .  A
C20          C21   1.385   1_455  A
C20          H23   1.082       .  S
C21         C350   1.382       .  A
C21         C162   1.477       .  S
C22         C349   1.381       .  A
C22          H24   1.082       .  S
N25          N26   1.322       .  A
N25          C29   1.349       .  A
N25         Cu33   2.083   1_556  S
N26          C27   1.347       .  A
N26         Cu32   2.087       .  S
C27          C28   1.390       .  A
C27          H30   1.081       .  S
C28          C29   1.385       .  A
C28         C145   1.488       .  S
C29          H31   1.082       .  S
Cu32        N363   2.087       .  S
Cu33         N43   2.084       .  S
Cu34         N36   2.081   1_554  S
Cu34         N42   2.081       .  S
N35          N36   1.323       .  A
N35          C39   1.347       .  A
N35        Cu360   2.091   1_455  S
N36          C37   1.348       .  A
C37          C38   1.384       .  A
C37          H40   1.082   1_556  S
C38          C39   1.390       .  A
C38         C142   1.486       .  S
C39          H41   1.081       .  S
N42         N371   1.323   1_455  A
N42          C46   1.347       .  A
N43         N370   1.324       .  A
N43          C44   1.346       .  A
C44          C45   1.382       .  A
C44          H47   1.082       .  S
C45         C374   1.386       .  A
C45         C150   1.479       .  S
C46         C373   1.386   1_455  A
C46          H48   1.082       .  S
C49          H50   1.110       .  S
C49          C55   1.549       .  S
C49          C54   1.540       .  S
C49          C53   1.544       .  S
C51          H52   1.111       .  S
C51          C57   1.538       .  S
C51          C56   1.542       .  S
C51          C58   1.535       .  S
C53          C56   1.374       .  D
C53         C134   1.488       .  S
C54          C57   1.371       .  D
C54         C141   1.484       .  S
C55          C58   1.377       .  D
C55         C146   1.492       .  S
C56         C137   1.485       .  S
C57         C153   1.489       .  S
C58         C158   1.490       .  S
N59          N60   1.322       .  A
N59          C63   1.353       .  A
N59         Cu67   2.101       .  S
N60          C61   1.339       .  A
N60         Cu66   2.049       .  S
C61          C62   1.374       .  A
C61          H64   1.082       .  S
C62          C63   1.392       .  A
C62         C129   1.474       .  S
C63          H65   1.082       .  S
Cu66         N69   2.049       .  S
Cu67         N77   2.103       .  S
Cu68         N70   2.069       .  S
Cu68         N76   2.070       .  S
N69          N70   1.319       .  A
N69          C73   1.340       .  A
N70          C71   1.346       .  A
C71          C72   1.384       .  A
C71          H74   1.082       .  S
C72          C73   1.382       .  A
C72         C125   1.472       .  S
C73          H75   1.082       .  S
N76          N77   1.326       .  A
N76          C80   1.343       .  A
N77          C78   1.350       .  A
C78          C79   1.387       .  A
C78          H81   1.082       .  S
C79          C80   1.376       .  A
C79         C138   1.474       .  S
C80          H82   1.082       .  S
N83          N84   1.320       .  A
N83          C87   1.352       .  A
N83         Cu91   2.096       .  S
N84          C85   1.340       .  A
N84         Cu90   2.057       .  S
C85          C86   1.385       .  A
C85          H88   1.081       .  S
C86          C87   1.391       .  A
C86         C117   1.487       .  S
C87          H89   1.082       .  S
Cu90         N93   2.058       .  S
Cu91        N101   2.098       .  S
Cu92         N94   2.087       .  S
Cu92        N100   2.089       .  S
N93          N94   1.321       .  A
N93          C97   1.341       .  A
N94          C95   1.350       .  A
C95          C96   1.389       .  A
C95          H98   1.082       .  S
C96          C97   1.378       .  A
C96         C121   1.474       .  S
C97          H99   1.082       .  S
N100        N101   1.326       .  A
N100        C104   1.347       .  A
N101        C102   1.349       .  A
C102        C103   1.386       .  A
C102        H105   1.082       .  S
C103        C104   1.381       .  A
C103        C133   1.481       .  S
C104        H106   1.082       .  S
C107        H108   1.111       .  S
C107        C112   1.529       .  S
C107        C111   1.542       .  S
C107        C441   1.533       .  S
C109        H438   1.111       .  S
C109        C279   1.541   1_545  S
C109        C278   1.539   1_545  S
C109        C608   1.537   1_545  S
H110        C437   1.111       .  S
C111        C114   1.374       .  D
C111        C161   1.487       .  S
C112        C115   1.372       .  D
C112        C126   1.476       .  S
C113        C435   1.532       .  S
C113        C116   1.374       .  D
C113        C130   1.483       .  S
C114        C273   1.537       .  S
C114        C313   1.483       .  S
C115        C273   1.542       .  S
C115        C282   1.485       .  S
C116        C601   1.540       .  S
C116        C286   1.483       .  S
C117        C118   1.345       .  D
C117        H119   1.086       .  S
C118        C279   1.482   1_545  S
C118        H284   1.082       .  S
H120        C282   1.083       .  S
C121        C122   1.341       .  D
C121        H123   1.087   1_545  S
C122        C280   1.483   1_545  S
C122        H124   1.085       .  S
C125        C126   1.341       .  D
C125        H127   1.087       .  S
C126        H128   1.084       .  S
C129        C130   1.339       .  D
C129        H131   1.087       .  S
C130        H132   1.085       .  S
C133        C134   1.342       .  D
C133        H135   1.086       .  S
C134        H136   1.087       .  S
C137        C138   1.340       .  D
C137        H139   1.087       .  S
C138        H140   1.087       .  S
C141        C142   1.341       .  D
C141        H143   1.085       .  S
C142        H144   1.087       .  S
C145        C146   1.343       .  D
C145        H147   1.086       .  S
C146        H148   1.085       .  S
C149        C150   1.345       .  D
C149        C278   1.486   1_545  S
C149        H479   1.085       .  S
C150        H152   1.086   1_545  S
H151        C477   1.085       .  S
C153        C154   1.343       .  D
C153        H155   1.085       .  S
C154        H156   1.087       .  S
C157        C158   1.344       .  D
C157        H159   1.087       .  S
C158        H160   1.086       .  S
C161        C490   1.342       .  D
C161        H163   1.086       .  S
C162        C489   1.343   1_655  D
C162        H164   1.087       .  S
N165        N166   1.323       .  A
N165        C169   1.348       .  A
N165       Cu173   2.083   1_556  S
N166        C167   1.346       .  A
N166       Cu500   2.084   1_455  S
C167        C168   1.388       .  A
C167        H170   1.082       .  S
C168        C169   1.384       .  A
C168        C318   1.485       .  S
C169        H171   1.082       .  S
Cu172       N494   2.089       .  S
Cu172       N175   2.088       .  S
Cu173       N183   2.083       .  S
Cu174       N176   2.079   1_554  S
Cu174       N182   2.079       .  S
N175        N176   1.323       .  A
N175        C179   1.349       .  A
N176        C177   1.346       .  A
C177        C178   1.381       .  A
C177        H180   1.082   1_556  S
C178        C179   1.387       .  A
C178        C321   1.477       .  S
C179        H181   1.082       .  S
N182        N511   1.322       .  A
N182        C186   1.345       .  A
N183        N510   1.324   1_455  A
N183        C184   1.349       .  A
C184        C185   1.386   1_455  A
C184        H187   1.082       .  S
C185        C514   1.384       .  A
C185        C326   1.481       .  S
C186        C513   1.383       .  A
C186        H188   1.082       .  S
N189        N190   1.322       .  A
N189        C193   1.347       .  A
N189       Cu197   2.076   1_556  S
N190        C191   1.348       .  A
N190       Cu196   2.095       .  S
C191        C192   1.391       .  A
C191        H194   1.081       .  S
C192        C193   1.383       .  A
C192        C309   1.486       .  S
C193        H195   1.082       .  S
Cu196       N527   2.095       .  S
Cu197       N207   2.076       .  S
Cu198       N200   2.085   1_554  S
Cu198       N206   2.085       .  S
N199        N200   1.323       .  A
N199        C203   1.345       .  A
N199       Cu524   2.083   1_455  S
N200        C201   1.348       .  A
C201        C202   1.385       .  A
C201        H204   1.082       .  S
C202        C203   1.389       .  A
C202        C306   1.486       .  S
C203        H205   1.081       .  S
N206        N535   1.323   1_455  A
N206        C210   1.347       .  A
N207        N534   1.323       .  A
N207        C208   1.345       .  A
C208        C209   1.381       .  A
C208        H211   1.082       .  S
C209        C538   1.386       .  A
C209        C314   1.476       .  S
C210        C537   1.386   1_455  A
C210        H212   1.082       .  S
C213        H214   1.111       .  S
C213        C219   1.546       .  S
C213        C218   1.537       .  S
C213        C217   1.542       .  S
C215        H216   1.111       .  S
C215        C221   1.542       .  S
C215        C220   1.538       .  S
C215        C222   1.534       .  S
C217        C220   1.372       .  D
C217        C298   1.482       .  S
C218        C221   1.374       .  D
C218        C305   1.483       .  S
C219        C222   1.376       .  D
C219        C310   1.491       .  S
C220        C301   1.483       .  S
C221        C317   1.491       .  S
C222        C322   1.487       .  S
N223        N224   1.323       .  A
N223        C227   1.348       .  A
N223       Cu231   2.088       .  S
N224        C225   1.343       .  A
N224       Cu230   2.067       .  S
C225        C226   1.378       .  A
C225        H228   1.082       .  S
C226        C227   1.387       .  A
C226        C293   1.473       .  S
C227        H229   1.082       .  S
Cu230       N233   2.067       .  S
Cu231       N241   2.088       .  S
Cu232       N234   2.074       .  S
Cu232       N240   2.075       .  S
N233        N234   1.321       .  A
N233        C237   1.344       .  A
N234        C235   1.346       .  A
C235        C236   1.383       .  A
C235        H238   1.082       .  S
C236        C237   1.384       .  A
C236        C289   1.476       .  S
C237        H239   1.082       .  S
N240        N241   1.324       .  A
N240        C244   1.345       .  A
N241        C242   1.348       .  A
C242        C243   1.386       .  A
C242        H245   1.082       .  S
C243        C244   1.379       .  A
C243        C302   1.474       .  S
C244        H246   1.082       .  S
N247        N248   1.322       .  A
N247        C251   1.350       .  A
N247       Cu255   2.083       .  S
N248        C249   1.343       .  A
N248       Cu254   2.076       .  S
C249        C250   1.387       .  A
C249        H252   1.081       .  S
C250        C251   1.387       .  A
C250        C281   1.485       .  S
C251        H253   1.082       .  S
Cu254       N257   2.076       .  S
Cu255       N265   2.084       .  S
Cu256       N258   2.083       .  S
Cu256       N264   2.084       .  S
N257        N258   1.322       .  A
N257        C261   1.345       .  A
N258        C259   1.348       .  A
C259        C260   1.387       .  A
C259        H262   1.082       .  S
C260        C261   1.382       .  A
C260        C285   1.478       .  S
C261        H263   1.082       .  S
N264        N265   1.324       .  A
N264        C268   1.347       .  A
N265        C266   1.346       .  A
C266        C267   1.385       .  A
C266        H269   1.082       .  S
C267        C268   1.382       .  A
C267        C297   1.477       .  S
C268        H270   1.082       .  S
C271        H272   1.111       .  S
C271        C605   1.535       .  S
C271        C276   1.531       .  S
C271        C275   1.543       .  S
C273        H602   1.111       .  S
C273        C444   1.539       .  S
H274        C601   1.111       .  S
C275        C278   1.375       .  D
C275        C325   1.485       .  S
C276        C279   1.373       .  D
C276        C290   1.482       .  S
C277        C599   1.537       .  S
C277        C280   1.371       .  D
C277        C294   1.478       .  S
C280        C437   1.531   1_565  S
C281        C282   1.344       .  D
C281        H283   1.086       .  S
C285        C286   1.342       .  D
C285        H287   1.087       .  S
C286        H288   1.087       .  S
C289        C290   1.341       .  D
C289        H291   1.087       .  S
C290        H292   1.085       .  S
C293        C294   1.339       .  D
C293        H295   1.088       .  S
C294        H296   1.087       .  S
C297        C298   1.341       .  D
C297        H299   1.087       .  S
C298        H300   1.087       .  S
C301        C302   1.340       .  D
C301        H303   1.087       .  S
C302        H304   1.087       .  S
C305        C306   1.342       .  D
C305        H307   1.084       .  S
C306        H308   1.087       .  S
C309        C310   1.342       .  D
C309        H311   1.086       .  S
C310        H312   1.085       .  S
C313        C314   1.343       .  D
C313        H643   1.085       .  S
C314        H316   1.087       .  S
H315        C641   1.085       .  S
C317        C318   1.343       .  D
C317        H319   1.084       .  S
C318        H320   1.086       .  S
C321        C322   1.343       .  D
C321        H323   1.087       .  S
C322        H324   1.086       .  S
C325        C654   1.343       .  D
C325        H327   1.086       .  S
C326        C653   1.346   1_655  D
C326        H328   1.087       .  S
N329        N330   1.324       .  A
N329        C333   1.350       .  A
N329       Cu337   2.091   1_556  S
N330        C331   1.346       .  A
C331        C332   1.388       .  A
C331        H334   1.081       .  S
C332        C333   1.386       .  A
C332        C482   1.488       .  S
C333        H335   1.082       .  S
Cu336       N339   2.092       .  S
Cu337       N347   2.090       .  S
Cu338       N340   2.079   1_554  S
Cu338       N346   2.079       .  S
N339        N340   1.323       .  A
N339        C343   1.350       .  A
N340        C341   1.346       .  A
C341        C342   1.382       .  A
C341        H344   1.082   1_556  S
C342        C343   1.388       .  A
C342        C485   1.479       .  S
C343        H345   1.082       .  S
N346        C350   1.346       .  A
N347        C348   1.349       .  A
C348        C349   1.388       .  A
C348        H351   1.082       .  S
C349        C490   1.480       .  S
C350        H352   1.082       .  S
N353        N354   1.322       .  A
N353        C357   1.348       .  A
N353       Cu361   2.075   1_556  S
N354        C355   1.346       .  A
N354       Cu360   2.090       .  S
C355        C356   1.390       .  A
C355        H358   1.081       .  S
C356        C357   1.383       .  A
C356        C473   1.486       .  S
C357        H359   1.082       .  S
Cu361       N371   2.075       .  S
Cu362       N364   2.086   1_554  S
Cu362       N370   2.086       .  S
N363        N364   1.323       .  A
N363        C367   1.346       .  A
N364        C365   1.349       .  A
C365        C366   1.385       .  A
C365        H368   1.082       .  S
C366        C367   1.390       .  A
C366        C470   1.488       .  S
C367        H369   1.081       .  S
N370        C374   1.348       .  A
N371        C372   1.344       .  A
C372        C373   1.380       .  A
C372        H375   1.082       .  S
C373        C478   1.475       .  S
C374        H376   1.082       .  S
C377        H378   1.110       .  S
C377        C383   1.549       .  S
C377        C382   1.540       .  S
C377        C381   1.543       .  S
C379        H380   1.111       .  S
C379        C385   1.540       .  S
C379        C384   1.541       .  S
C379        C386   1.533       .  S
C381        C384   1.373       .  D
C381        C462   1.489       .  S
C382        C385   1.374       .  D
C382        C469   1.484       .  S
C383        C386   1.376       .  D
C383        C474   1.491       .  S
C384        C465   1.482       .  S
C385        C481   1.492       .  S
C386        C486   1.490       .  S
N387        N388   1.322       .  A
N387        C391   1.353       .  A
N387       Cu395   2.100       .  S
N388        C389   1.338       .  A
N388       Cu394   2.049       .  S
C389        C390   1.374       .  A
C389        H392   1.082       .  S
C390        C391   1.391       .  A
C390        C457   1.474       .  S
C391        H393   1.082       .  S
Cu394       N397   2.049       .  S
Cu395       N405   2.101       .  S
Cu396       N398   2.066       .  S
Cu396       N404   2.067       .  S
N397        N398   1.319       .  A
N397        C401   1.340       .  A
N398        C399   1.346       .  A
C399        C400   1.383       .  A
C399        H402   1.082       .  S
C400        C401   1.382       .  A
C400        C453   1.471       .  S
C401        H403   1.082       .  S
N404        N405   1.326       .  A
N404        C408   1.343       .  A
N405        C406   1.349       .  A
C406        C407   1.387       .  A
C406        H409   1.082       .  S
C407        C408   1.376       .  A
C407        C466   1.473       .  S
C408        H410   1.082       .  S
N411        N412   1.321       .  A
N411        C415   1.350       .  A
N411       Cu419   2.091       .  S
N412        C413   1.341       .  A
N412       Cu418   2.062       .  S
C413        C414   1.384       .  A
C413        H416   1.081       .  S
C414        C415   1.388       .  A
C414        C445   1.483       .  S
C415        H417   1.082       .  S
Cu418       N421   2.063       .  S
Cu419       N429   2.093       .  S
Cu420       N422   2.094       .  S
Cu420       N428   2.095       .  S
N421        N422   1.322       .  A
N421        C425   1.343       .  A
N422        C423   1.350       .  A
C423        C424   1.389       .  A
C423        H426   1.082       .  S
C424        C425   1.379       .  A
C424        C449   1.477       .  S
C425        H427   1.082       .  S
N428        N429   1.326       .  A
N428        C432   1.348       .  A
N429        C430   1.348       .  A
C430        C431   1.386       .  A
C430        H433   1.082       .  S
C431        C432   1.383       .  A
C431        C461   1.483       .  S
C432        H434   1.082       .  S
C435        H436   1.111   1_455  S
C435        C440   1.527   1_455  S
C435        C439   1.542       .  S
C437        C607   1.538   1_445  S
C437        C606   1.541   1_545  S
C439        C442   1.375       .  D
C439        C489   1.484       .  S
C440        C443   1.370       .  D
C440        C454   1.475       .  S
C441        C444   1.374       .  D
C441        C458   1.485       .  S
C442        C601   1.537       .  S
C442        C641   1.483       .  S
C443        C601   1.543   1_655  S
C443        C610   1.483       .  S
C444        C614   1.482       .  S
C445        C446   1.345       .  D
C445        H447   1.086       .  S
C446        C607   1.484   1_545  S
C446        H612   1.083       .  S
H448        C610   1.083       .  S
C449        C450   1.340       .  D
C449        H451   1.087       .  S
C450        C608   1.482   1_545  S
C450        H452   1.087       .  S
C453        C454   1.341       .  D
C453        H455   1.087       .  S
C454        H456   1.085       .  S
C457        C458   1.340       .  D
C457        H459   1.087       .  S
C458        H460   1.085       .  S
C461        C462   1.343       .  D
C461        H463   1.086       .  S
C462        H464   1.087       .  S
C465        C466   1.338       .  D
C465        H467   1.087       .  S
C466        H468   1.087       .  S
C469        C470   1.342       .  D
C469        H471   1.084       .  S
C470        H472   1.087       .  S
C473        C474   1.342       .  D
C473        H475   1.086       .  S
C474        H476   1.085       .  S
C477        C478   1.341   1_455  D
C477        C606   1.479   1_545  S
C478        H480   1.086       .  S
C481        C482   1.345       .  D
C481        H483   1.084       .  S
C482        H484   1.086       .  S
C485        C486   1.343       .  D
C485        H487   1.087       .  S
C486        H488   1.086       .  S
C489        H491   1.086       .  S
C490        H492   1.087       .  S
N493        N494   1.323       .  A
N493        C497   1.347       .  A
N493       Cu501   2.079   1_556  S
N494        C495   1.346       .  A
C495        C496   1.389       .  A
C495        H498   1.081       .  S
C496        C497   1.383       .  A
C496        C646   1.483       .  S
C497        H499   1.082       .  S
Cu500       N503   2.083       .  S
Cu501       N511   2.079       .  S
Cu502       N504   2.093   1_554  S
Cu502       N510   2.093       .  S
N503        N504   1.323       .  A
N503        C507   1.348       .  A
N504        C505   1.349       .  A
C505        C506   1.386       .  A
C505        H508   1.082   1_556  S
C506        C507   1.386       .  A
C506        C649   1.482       .  S
C507        H509   1.082       .  S
N510        C514   1.346       .  A
N511        C512   1.347       .  A
C512        C513   1.386       .  A
C512        H515   1.082       .  S
C513        C654   1.479       .  S
C514        H516   1.082       .  S
N517        N518   1.322       .  A
N517        C521   1.347       .  A
N517       Cu525   2.076   1_556  S
N518        C519   1.346       .  A
N518       Cu524   2.083       .  S
C519        C520   1.389       .  A
C519        H522   1.081       .  S
C520        C521   1.383       .  A
C520        C637   1.483       .  S
C521        H523   1.082       .  S
Cu525       N535   2.077       .  S
Cu526       N528   2.086   1_554  S
Cu526       N534   2.086       .  S
N527        N528   1.323       .  A
N527        C531   1.348       .  A
N528        C529   1.349       .  A
C529        C530   1.385       .  A
C529        H532   1.082       .  S
C530        C531   1.390       .  A
C530        C634   1.489       .  S
C531        H533   1.081       .  S
N534        C538   1.348       .  A
N535        C536   1.345       .  A
C536        C537   1.381       .  A
C536        H539   1.082       .  S
C537        C642   1.478       .  S
C538        H540   1.082       .  S
C541        H542   1.110       .  S
C541        C547   1.549       .  S
C541        C546   1.539       .  S
C541        C545   1.541       .  S
C543        H544   1.111       .  S
C543        C549   1.541       .  S
C543        C548   1.540       .  S
C543        C550   1.535       .  S
C545        C548   1.371       .  D
C545        C626   1.484       .  S
C546        C549   1.372       .  D
C546        C633   1.487       .  S
C547        C550   1.377       .  D
C547        C638   1.490       .  S
C548        C629   1.483       .  S
C549        C645   1.488       .  S
C550        C650   1.491       .  S
N551        N552   1.322       .  A
N551        C555   1.352       .  A
N551       Cu559   2.096       .  S
N552        C553   1.340       .  A
N552       Cu558   2.057       .  S
C553        C554   1.376       .  A
C553        H556   1.082       .  S
C554        C555   1.390       .  A
C554        C621   1.475       .  S
C555        H557   1.082       .  S
Cu558       N561   2.057       .  S
Cu559       N569   2.097       .  S
Cu560       N562   2.074       .  S
Cu560       N568   2.075       .  S
N561        N562   1.320       .  A
N561        C565   1.342       .  A
N562        C563   1.346       .  A
C563        C564   1.384       .  A
C563        H566   1.082       .  S
C564        C565   1.384       .  A
C564        C617   1.476       .  S
C565        H567   1.082       .  S
N568        N569   1.325       .  A
N568        C572   1.345       .  A
N569        C570   1.349       .  A
C570        C571   1.386       .  A
C570        H573   1.082       .  S
C571        C572   1.378       .  A
C571        C630   1.475       .  S
C572        H574   1.082       .  S
N575        N576   1.321       .  A
N575        C579   1.349       .  A
N575       Cu583   2.084       .  S
N576        C577   1.344       .  A
N576       Cu582   2.075       .  S
C577        C578   1.389       .  A
C577        H580   1.081       .  S
C578        C579   1.386       .  A
C578        C609   1.486       .  S
C579        H581   1.082       .  S
Cu582       N585   2.074       .  S
Cu583       N593   2.085       .  S
Cu584       N586   2.084       .  S
Cu584       N592   2.084       .  S
N585        N586   1.323       .  A
N585        C589   1.344       .  A
N586        C587   1.349       .  A
C587        C588   1.386       .  A
C587        H590   1.082       .  S
C588        C589   1.380       .  A
C588        C613   1.475       .  S
C589        H591   1.082       .  S
N592        N593   1.324       .  A
N592        C596   1.347       .  A
N593        C594   1.347       .  A
C594        C595   1.385       .  A
C594        H597   1.082       .  S
C595        C596   1.382       .  A
C595        C625   1.479       .  S
C596        H598   1.082       .  S
C599        H600   1.111       .  S
C599        C604   1.534   1_455  S
C599        C603   1.538       .  S
C603        C606   1.376       .  D
C603        C653   1.490       .  S
C604        C607   1.373       .  D
C604        C618   1.478       .  S
C605        C608   1.373       .  D
C605        C622   1.485       .  S
C609        C610   1.342       .  D
C609        H611   1.086       .  S
C613        C614   1.340       .  D
C613        H615   1.087       .  S
C614        H616   1.087       .  S
C617        C618   1.341       .  D
C617        H619   1.086       .  S
C618        H620   1.084       .  S
C621        C622   1.341       .  D
C621        H623   1.087       .  S
C622        H624   1.085       .  S
C625        C626   1.341       .  D
C625        H627   1.087       .  S
C626        H628   1.087       .  S
C629        C630   1.339       .  D
C629        H631   1.087       .  S
C630        H632   1.087       .  S
C633        C634   1.343       .  D
C633        H635   1.085       .  S
C634        H636   1.086       .  S
C637        C638   1.342       .  D
C637        H639   1.085       .  S
C638        H640   1.085       .  S
C641        C642   1.343   1_455  D
C642        H644   1.086       .  S
C645        C646   1.341       .  D
C645        H647   1.085       .  S
C646        H648   1.086       .  S
C649        C650   1.346       .  D
C649        H651   1.086       .  S
C650        H652   1.086       .  S
C653        H655   1.086       .  S
C654        H656   1.087       .  S
