geometry optimzed in LAMMPS
_audit_creation_date              2020-12-01 
_audit_creation_method            'lammps2cif' 
_symmetry_space_group_name_H-M    'P1' 
_symmetry_Int_Tables_number       1 
_symmetry_cell_setting            triclinic 
loop_ 
_symmetry_equiv_pos_as_xyz 
  x,y,z 
_cell_length_a                    43.00113061 
_cell_length_b                    43.10630935752793 
_cell_length_c                    25.193372469112038 
_cell_angle_alpha                 90.1533643971981 
_cell_angle_beta                  90.23606572792183 
_cell_angle_gamma                 90.34049059635055 
loop_ 
_atom_site_label 
_atom_site_type_symbol 
_atom_site_fract_x 
_atom_site_fract_y 
_atom_site_fract_z 
_atom_site_charge 
N1          N  0.21640648  0.40886064  0.05366019    -0.36300
N2          N  0.28410630  0.40954847  0.05814313    -0.56900
N3          N  0.28521305  0.40872857  0.94382927    -0.36300
N4          N  0.21761846  0.40491913  0.93956193    -0.56900
C5          C  0.22247835  0.39998605  0.10415103     0.27300
C6          C  0.18716600  0.39933204  0.04156206     0.27300
C7          C  0.31493119  0.40190097  0.95674976     0.27300
C8          C  0.27993640  0.39778502  0.89424479     0.27300
C9          C  0.27653414  0.41851426  0.10777744     0.35900
C10         C  0.31309154  0.42049192  0.04903404     0.35900
C11         C  0.18782388  0.41372875  0.94703540     0.35900
C12         C  0.22463042  0.41152889  0.88860169     0.35900
C13         C  0.19717600  0.38387622  0.12410824    -0.21600
C14         C  0.17493541  0.38330429  0.08455664    -0.21600
C15         C  0.32835963  0.38547127  0.91520659    -0.21600
C16         C  0.30631455  0.38325685  0.87546515    -0.21600
C17         C  0.30052597  0.43565127  0.13026857    -0.22700
C18         C  0.32369009  0.43711889  0.09285939    -0.22700
C19         C  0.17622499  0.42664002  0.90047052    -0.22700
C20         C  0.19941100  0.42469235  0.86328685    -0.22700
C21         C  0.24907530  0.40910762  0.13366456    -0.18000
C22         C  0.17099889  0.40741360  0.99425479    -0.18000
C23         C  0.25295515  0.40384132  0.86422877    -0.18000
C24         C  0.33033290  0.41300472  0.00309182    -0.18000
H25         H  0.19479772  0.37400267  0.16335079     0.14900
H26         H  0.15239174  0.37229681  0.08759237     0.14900
H27         H  0.35161649  0.37614123  0.91316142     0.14900
H28         H  0.30945482  0.37261240  0.83690777     0.14900
H29         H  0.30124341  0.44594502  0.16948973     0.13200
H30         H  0.34560004  0.44924609  0.09769365     0.13200
H31         H  0.15372712  0.43682531  0.89326482     0.13200
H32         H  0.19799906  0.43237435  0.82247666     0.13200
H33         H  0.22987716  0.42410538  0.03122805     0.26400
H34         H  0.27073852  0.42366999  0.96475428     0.26400
N35         N  0.27929007  0.41450824  0.44157486    -0.36300
N36         N  0.28153331  0.41071228  0.55559835    -0.56900
N37         N  0.21404471  0.40393808  0.55843343    -0.36300
N38         N  0.21172041  0.41122842  0.44381330    -0.56900
C39         C  0.30847381  0.42490409  0.45183916     0.27300
C40         C  0.27128382  0.42434765  0.39252567     0.27300
C41         C  0.22127960  0.41112171  0.60931577     0.27300
C42         C  0.18406999  0.41210315  0.55012280     0.27300
C43         C  0.31154547  0.40507556  0.54345589     0.35900
C44         C  0.27711488  0.39975641  0.60519042     0.35900
C45         C  0.21760864  0.40431301  0.39244302     0.35900
C46         C  0.18307810  0.39980826  0.45451918     0.35900
C47         C  0.31882619  0.44237296  0.40907532    -0.21600
C48         C  0.29537964  0.44182496  0.37147118    -0.21600
C49         C  0.19582618  0.42413510  0.63397473    -0.21600
C50         C  0.17245332  0.42525427  0.59648840    -0.21600
C51         C  0.32587528  0.38967069  0.58529675    -0.22700
C52         C  0.30414485  0.38684678  0.62475318    -0.22700
C53         C  0.19293993  0.38789110  0.37055028    -0.22700
C54         C  0.17106546  0.38495103  0.40986707    -0.22700
C55         C  0.32629452  0.41637249  0.49702515    -0.18000
C56         C  0.24423228  0.41465380  0.36481026    -0.18000
C57         C  0.16711660  0.40559374  0.50269154    -0.18000
C58         C  0.24973843  0.40413559  0.63439841    -0.18000
H59         H  0.34099708  0.45405694  0.40482984     0.14900
H60         H  0.29617777  0.45255182  0.33269400     0.14900
H61         H  0.19433143  0.43216110  0.67463016     0.14900
H62         H  0.14979209  0.43512292  0.60332222     0.14900
H63         H  0.34943090  0.38114978  0.58765968     0.13200
H64         H  0.30776383  0.37649454  0.66337033     0.13200
H65         H  0.19086841  0.37904674  0.33043953     0.13200
H66         H  0.14906759  0.37290002  0.40577101     0.13200
H67         H  0.26710335  0.39802437  0.46368274     0.26400
H68         H  0.22783385  0.39104668  0.53259310     0.26400
N69         N  0.42283791  0.20963388  0.05826175    -0.36300
N70         N  0.42412982  0.21033463  0.94384426    -0.56900
N71         N  0.42264028  0.27772696  0.94591149    -0.36300
N72         N  0.42421738  0.27726529  0.06013660    -0.56900
C73         C  0.43339013  0.18090628  0.04640468     0.27300
C74         C  0.43199869  0.21640333  0.10846043     0.27300
C75         C  0.43154070  0.27142086  0.89576262     0.27300
C76         C  0.43240110  0.30684056  0.95738439     0.27300
C77         C  0.41671873  0.18026915  0.95267009     0.35900
C78         C  0.41545823  0.21671087  0.89344462     0.35900
C79         C  0.41480703  0.27058505  0.10993191     0.35900
C80         C  0.41559047  0.30684214  0.05042266     0.35900
C81         C  0.45039008  0.16977091  0.08933499    -0.21600
C82         C  0.44923370  0.19208474  0.12863615    -0.21600
C83         C  0.44774559  0.29644147  0.87512740    -0.21600
C84         C  0.44861069  0.31876681  0.91429676    -0.21600
C85         C  0.40252986  0.16780389  0.90763860    -0.22700
C86         C  0.40205811  0.19084943  0.87001306    -0.22700
C87         C  0.39958191  0.29575214  0.13177135    -0.22700
C88         C  0.39993929  0.31872606  0.09398588    -0.22700
C89         C  0.42538124  0.16410689  0.99951665    -0.18000
C90         C  0.42285566  0.24311931  0.13701934    -0.18000
C91         C  0.42400341  0.32324587  0.00388271    -0.18000
C92         C  0.42264976  0.24468248  0.86729468    -0.18000
H93         H  0.46252496  0.14794962  0.09243922     0.14900
H94         H  0.45972368  0.19053338  0.16766134     0.14900
H95         H  0.45751136  0.29852047  0.83575324     0.14900
H96         H  0.45979730  0.34119943  0.91087361     0.14900
H97         H  0.39332382  0.14471228  0.90171560     0.13200
H98         H  0.39316569  0.18875665  0.82989208     0.13200
H99         H  0.38947502  0.29744640  0.17093779     0.13200
H100        H  0.38956611  0.34136844  0.09836007     0.13200
H101        H  0.40699475  0.22242709  0.03584387     0.26400
H102        H  0.40722532  0.26438883  0.96837907     0.26400
N103        N  0.42228771  0.27939661  0.56020288    -0.36300
N104        N  0.42671438  0.21162716  0.56033394    -0.56900
N105        N  0.42386636  0.21149804  0.44659596    -0.36300
N106        N  0.42225102  0.27916240  0.44629654    -0.56900
C107        C  0.43273512  0.27319203  0.60965843     0.27300
C108        C  0.42971290  0.30923970  0.54921551     0.27300
C109        C  0.43465887  0.18277820  0.45762798     0.27300
C110        C  0.43304594  0.21880584  0.39687851     0.27300
C111        C  0.41807085  0.21802712  0.61058173     0.35900
C112        C  0.41842838  0.18182561  0.55083070     0.35900
C113        C  0.41157015  0.30796952  0.45666019     0.35900
C114        C  0.41300012  0.27198040  0.39644162     0.35900
C115        C  0.44746693  0.29917347  0.63048689    -0.21600
C116        C  0.44584828  0.32192345  0.59210212    -0.21600
C117        C  0.45178847  0.17208348  0.41474492    -0.21600
C118        C  0.45060182  0.19480565  0.37626263    -0.21600
C119        C  0.40368721  0.19251278  0.63312150    -0.22700
C120        C  0.40370938  0.16957160  0.59517520    -0.22700
C121        C  0.39462369  0.31875983  0.41354319    -0.22700
C122        C  0.39563403  0.29592396  0.37528974    -0.22700
C123        C  0.42620318  0.24557213  0.63747240    -0.18000
C124        C  0.41990123  0.32507829  0.50274826    -0.18000
C125        C  0.42314183  0.24539169  0.36881448    -0.18000
C126        C  0.42667696  0.16572606  0.50383745    -0.18000
H127        H  0.45797993  0.30154653  0.66941496     0.14900
H128        H  0.45550643  0.34504157  0.59584304     0.14900
H129        H  0.46390124  0.15026446  0.41118974     0.14900
H130        H  0.46112248  0.19363753  0.33735984     0.14900
H131        H  0.39464741  0.19051458  0.67301497     0.13200
H132        H  0.39384079  0.14671634  0.60038792     0.13200
H133        H  0.38278258  0.34071095  0.40971107     0.13200
H134        H  0.38527375  0.29699907  0.33611835     0.13200
H135        H  0.40750801  0.26517627  0.53789037     0.26400
H136        H  0.40774468  0.22379942  0.46907218     0.26400
N137        N  0.21739897  0.06591626  0.05444564    -0.36300
N138        N  0.28486177  0.06882368  0.05743459    -0.56900
N139        N  0.28577390  0.07154230  0.94305874    -0.36300
N140        N  0.21812122  0.07167097  0.94002592    -0.56900
C141        C  0.22315434  0.07462206  0.10525509     0.27300
C142        C  0.18775704  0.07391269  0.04299477     0.27300
C143        C  0.31500273  0.08044747  0.95650179     0.27300
C144        C  0.27963671  0.08345376  0.89447522     0.27300
C145        C  0.27848039  0.06063419  0.10793893     0.35900
C146        C  0.31483259  0.06123573  0.04860780     0.35900
C147        C  0.18856356  0.06163782  0.94719936     0.35900
C148        C  0.22483993  0.06715749  0.88818945     0.35900
C149        C  0.19713753  0.08868303  0.12633180    -0.21600
C150        C  0.17490064  0.08864076  0.08688554    -0.21600
C151        C  0.32715856  0.09891427  0.91642585    -0.21600
C152        C  0.30490611  0.10059630  0.87713105    -0.21600
C153        C  0.30426450  0.04746928  0.13154796    -0.22700
C154        C  0.32718761  0.04724275  0.09365533    -0.22700
C155        C  0.17682465  0.05005573  0.89951381    -0.22700
C156        C  0.19966656  0.05399582  0.86211280    -0.22700
C157        C  0.25053668  0.06787721  0.13384664    -0.18000
C158        C  0.17185637  0.06587426  0.99525519    -0.18000
C159        C  0.25280385  0.07677096  0.86395195    -0.18000
C160        C  0.33127903  0.07025837  0.00235775    -0.18000
H161        H  0.19445027  0.09795802  0.16600950     0.14900
H162        H  0.15201337  0.09865661  0.09051476     0.14900
H163        H  0.34963896  0.11018815  0.91534868     0.14900
H164        H  0.30715266  0.11279310  0.83983313     0.14900
H165        H  0.30633052  0.03903313  0.17183452     0.13200
H166        H  0.35020697  0.03791165  0.09947665     0.13200
H167        H  0.15440879  0.03955971  0.89164354     0.13200
H168        H  0.19800230  0.04769159  0.82057483     0.13200
H169        H  0.23159613  0.05198662  0.03098309     0.26400
H170        H  0.27227135  0.05514017  0.96297075     0.26400
N171        N  0.28385533  0.07739362  0.55476053    -0.36300
N172        N  0.21600506  0.07537661  0.55667797    -0.56900
N173        N  0.21596029  0.06855970  0.44260143    -0.36300
N174        N  0.28370343  0.07407649  0.44087103    -0.56900
C175        C  0.27736233  0.08914380  0.60331120     0.27300
C176        C  0.31335613  0.08584904  0.54274727     0.27300
C177        C  0.18575573  0.07470875  0.45292596     0.27300
C178        C  0.22146174  0.07677072  0.39165736     0.27300
C179        C  0.22335128  0.07028023  0.60812913     0.35900
C180        C  0.18742594  0.06290698  0.54861841     0.35900
C181        C  0.31352477  0.06613539  0.45089819     0.35900
C182        C  0.27737992  0.06480959  0.39070905     0.35900
C183        C  0.30272298  0.10588548  0.62204183    -0.21600
C184        C  0.32541476  0.10396491  0.58366995    -0.21600
C185        C  0.17216805  0.08769003  0.40798736    -0.21600
C186        C  0.19463306  0.08857441  0.36919815    -0.21600
C187        C  0.19960555  0.05421210  0.63297475    -0.22700
C188        C  0.17691605  0.04928379  0.59520723    -0.22700
C189        C  0.32581043  0.05101345  0.40694291    -0.22700
C190        C  0.30305340  0.05078319  0.36849582    -0.22700
C191        C  0.25056260  0.08169667  0.63307560    -0.18000
C192        C  0.32986454  0.07518448  0.49761083    -0.18000
C193        C  0.24928361  0.07086484  0.36402278    -0.18000
C194        C  0.17030449  0.06643868  0.50073435    -0.18000
H195        H  0.30486428  0.11766179  0.65989377     0.14900
H196        H  0.34819570  0.11457759  0.58606573     0.14900
H197        H  0.14865356  0.09595779  0.40307170     0.14900
H198        H  0.19150542  0.09670325  0.32892068     0.14900
H199        H  0.19876922  0.04680694  0.67396764     0.13200
H200        H  0.15542469  0.03677096  0.60174863     0.13200
H201        H  0.34858432  0.04092774  0.40239122     0.13200
H202        H  0.30501756  0.04108151  0.32898271     0.13200
H203        H  0.27052651  0.06101177  0.53429129     0.26400
H204        H  0.23088234  0.05594758  0.46685697     0.26400
N205        N  0.07726005  0.20224695  0.94030600    -0.36300
N206        N  0.07778914  0.20288129  0.05435606    -0.56900
N207        N  0.07533099  0.27069395  0.05265391    -0.36300
N208        N  0.07782772  0.27020580  0.93839137    -0.56900
C209        C  0.08613022  0.17288674  0.95150726     0.27300
C210        C  0.08637950  0.20849963  0.89013831     0.27300
C211        C  0.08436602  0.26460664  0.10310555     0.27300
C212        C  0.08372180  0.30034870  0.04174495     0.27300
C213        C  0.07022441  0.17281510  0.04551995     0.35900
C214        C  0.06997749  0.20914834  0.10510853     0.35900
C215        C  0.07071357  0.26344447  0.88729169     0.35900
C216        C  0.06890302  0.29987947  0.94694684     0.35900
C217        C  0.10180600  0.16071672  0.90806164    -0.21600
C218        C  0.10159040  0.18309316  0.86914888    -0.21600
C219        C  0.09901198  0.29042350  0.12452244    -0.21600
C220        C  0.09911288  0.31278449  0.08562313    -0.21600
C221        C  0.05690041  0.16021955  0.09084946    -0.22700
C222        C  0.05732753  0.18308710  0.12882875    -0.22700
C223        C  0.05709309  0.28870557  0.86305760    -0.22700
C224        C  0.05549430  0.31163944  0.90090489    -0.22700
C225        C  0.07801486  0.15654670  0.99844466    -0.18000
C226        C  0.07836492  0.23541611  0.86157137    -0.18000
C227        C  0.07543419  0.31657723  0.99462111    -0.18000
C228        C  0.07705526  0.23724197  0.13124670    -0.18000
H229        H  0.11239298  0.13813506  0.90426483     0.14900
H230        H  0.11120305  0.18082343  0.82969518     0.14900
H231        H  0.10857488  0.29297562  0.16409189     0.14900
H232        H  0.10954401  0.33549226  0.08985262     0.14900
H233        H  0.04764374  0.13713031  0.09667633     0.13200
H234        H  0.04930112  0.18068621  0.16926537     0.13200
H235        H  0.04896340  0.29035736  0.82244244     0.13200
H236        H  0.04513559  0.33409570  0.89457316     0.13200
H237        H  0.06231359  0.21584643  0.96293215     0.26400
H238        H  0.06082662  0.25666110  0.02943083     0.26400
N239        N  0.06890735  0.26895066  0.43980761    -0.36300
N240        N  0.07268493  0.20124309  0.43867965    -0.56900
N241        N  0.07210642  0.20107906  0.55303485    -0.36300
N242        N  0.07089064  0.26866106  0.55402305    -0.56900
C243        C  0.07842430  0.26272923  0.38978079     0.27300
C244        C  0.07731170  0.29859792  0.45118612     0.27300
C245        C  0.08230261  0.17217663  0.54176195     0.27300
C246        C  0.08150783  0.20796068  0.60303784     0.27300
C247        C  0.06498876  0.20702623  0.38761376     0.35900
C248        C  0.06620021  0.17096151  0.44757795     0.35900
C249        C  0.06135712  0.29800931  0.54500805     0.35900
C250        C  0.06361067  0.26201431  0.60485163     0.35900
C251        C  0.09324157  0.28853292  0.36900096    -0.21600
C252        C  0.09308293  0.31095984  0.40797220    -0.21600
C253        C  0.09900162  0.16095867  0.58497296    -0.21600
C254        C  0.09809027  0.18340640  0.62386277    -0.21600
C255        C  0.05327910  0.18046387  0.36374931    -0.22700
C256        C  0.05351985  0.15771461  0.40191684    -0.22700
C257        C  0.04702185  0.30962494  0.59021539    -0.22700
C258        C  0.04886667  0.28690541  0.62832778    -0.22700
C259        C  0.07163065  0.23516916  0.36148359    -0.18000
C260        C  0.06892074  0.31478033  0.49830565    -0.18000
C261        C  0.07334925  0.23498601  0.63121972    -0.18000
C262        C  0.07455081  0.15525354  0.49504120    -0.18000
H263        H  0.10323532  0.29102504  0.32989525     0.14900
H264        H  0.10373921  0.33359486  0.40427650     0.14900
H265        H  0.11085430  0.13900318  0.58851073     0.14900
H266        H  0.10844676  0.18184625  0.66299082     0.14900
H267        H  0.04557205  0.17768247  0.32305827     0.13200
H268        H  0.04525432  0.13424432  0.39594069     0.13200
H269        H  0.03633680  0.33202323  0.59577954     0.13200
H270        H  0.04063595  0.28858401  0.66877781     0.13200
H271        H  0.05429299  0.25489431  0.46249124     0.26400
H272        H  0.05646270  0.21392309  0.53036651     0.26400
O273        O  0.42376953  0.46202433  0.04593096    -0.74100
O274        O  0.42588908  0.37299039  0.04721708    -0.74200
O275        O  0.46935765  0.41807616  0.04490606    -0.74200
O276        O  0.38016691  0.41565987  0.04731060    -0.74300
O277        O  0.37934843  0.41780848  0.95920225    -0.74200
O278        O  0.46809643  0.41578568  0.95643799    -0.74200
O279        O  0.42226718  0.37250250  0.95921121    -0.74200
O280        O  0.42457814  0.46150044  0.95744000    -0.74200
Ni281      Ni  0.42482738  0.41737075  0.04955047     1.25400
Ni282      Ni  0.42359101  0.41695121  0.95496427     1.25400
C283        C  0.42391455  0.47645265  0.00147783     0.88000
C284        C  0.42403131  0.35793705  0.00344749     0.88000
C285        C  0.48332988  0.41615418  0.00016250     0.88000
C286        C  0.36496161  0.41582271  0.00340031     0.88200
O287        O  0.42188939  0.46439871  0.53987297    -0.74100
O288        O  0.41809127  0.37549233  0.54453735    -0.74200
O289        O  0.46455490  0.41826887  0.54397178    -0.74200
O290        O  0.37572097  0.42170993  0.54043340    -0.74300
O291        O  0.37595658  0.41744396  0.45251376    -0.74200
O292        O  0.46523190  0.41849724  0.45542512    -0.74200
O293        O  0.42109086  0.37384306  0.45653715    -0.74200
O294        O  0.42064192  0.46296081  0.45139338    -0.74200
Ni295      Ni  0.42002549  0.42008380  0.54530862     1.25400
Ni296      Ni  0.42071177  0.41822852  0.45076731     1.25400
C297        C  0.42166908  0.47833786  0.49502236     0.88000
C298        C  0.41957183  0.35983221  0.50129121     0.88000
C299        C  0.47951076  0.41771446  0.50014004     0.88000
C300        C  0.36100485  0.41893302  0.49636882     0.88200
O301        O  0.47039569  0.06959143  0.04431692    -0.74100
O302        O  0.38127900  0.07104658  0.04581479    -0.74200
O303        O  0.42489697  0.02568702  0.04591139    -0.74200
O304        O  0.42612083  0.11473521  0.04427329    -0.74300
O305        O  0.42605129  0.11400471  0.95620889    -0.74200
O306        O  0.42441230  0.02514159  0.95735767    -0.74200
O307        O  0.38060545  0.06958744  0.95770414    -0.74200
O308        O  0.46958074  0.06882829  0.95577473    -0.74200
Ni309      Ni  0.42576854  0.07029191  0.04824573     1.25400
Ni310      Ni  0.42512297  0.06945187  0.95365041     1.25400
C311        C  0.48460957  0.06859550  0.99971960     0.88000
C312        C  0.36608701  0.07030918  0.00202157     0.88000
C313        C  0.42435517  0.01080492  0.00178298     0.88000
C314        C  0.42598508  0.12925630  0.99995668     0.88200
O315        O  0.42221557  0.02752614  0.45540276    -0.74100
O316        O  0.42629382  0.11653846  0.45805618    -0.74200
O317        O  0.46883365  0.06986923  0.45792113    -0.74200
O318        O  0.37999129  0.07438878  0.45555810    -0.74300
O319        O  0.37916368  0.07290951  0.54364934    -0.74200
O320        O  0.46840423  0.06899767  0.54644893    -0.74200
O321        O  0.42626179  0.11558183  0.54614546    -0.74200
O322        O  0.42177535  0.02681853  0.54393568    -0.74200
Ni323      Ni  0.42439038  0.07210001  0.45362090     1.25400
Ni324      Ni  0.42384016  0.07112259  0.54820100     1.25400
C325        C  0.42164216  0.01255528  0.49929392     0.88000
C326        C  0.42658119  0.13092197  0.50263374     0.88000
C327        C  0.48322074  0.06835411  0.50245363     0.88000
C328        C  0.36470913  0.07419034  0.49904971     0.88200
O329        O  0.03269385  0.06183655  0.95494844    -0.74100
O330        O  0.12154201  0.06477886  0.95242804    -0.74200
O331        O  0.07822877  0.01819287  0.95325642    -0.74200
O332        O  0.07562167  0.10711274  0.95417680    -0.74300
O333        O  0.08061398  0.10685927  0.04190778    -0.74200
O334        O  0.07671758  0.01802860  0.04173040    -0.74200
O335        O  0.12283264  0.06076890  0.04014690    -0.74200
O336        O  0.03383682  0.06443887  0.04339487    -0.74200
Ni337      Ni  0.07702089  0.06281408  0.95053946     1.25400
Ni338      Ni  0.07848988  0.06244933  0.04500486     1.25400
C339        C  0.01867466  0.06413181  0.99947491     0.88000
C340        C  0.13706342  0.06352219  0.99583226     0.88000
C341        C  0.07751749  0.00345430  0.99738678     0.88000
C342        C  0.07813357  0.12181603  0.99821589     0.88200
O343        O  0.07734107  0.01747213  0.54603162    -0.74100
O344        O  0.07393574  0.10646709  0.54113442    -0.74200
O345        O  0.03154420  0.06073056  0.54310015    -0.74200
O346        O  0.12047457  0.06458101  0.54446045    -0.74300
O347        O  0.12099410  0.05948130  0.45680546    -0.74200
O348        O  0.03211601  0.06189206  0.45454976    -0.74200
O349        O  0.07803094  0.10494993  0.45336197    -0.74200
O350        O  0.07523594  0.01622622  0.45758716    -0.74200
Ni351      Ni  0.07590580  0.06221945  0.54692047     1.25400
Ni352      Ni  0.07660938  0.06048974  0.45244899     1.25400
C353        C  0.07607711  0.00219185  0.50228300     0.88000
C354        C  0.07560185  0.12053425  0.49646342     0.88000
C355        C  0.01726646  0.06204958  0.49851348     0.88000
C356        C  0.13558901  0.06309658  0.50079738     0.88200
O357        O  0.07816374  0.45530445  0.95031341    -0.74100
O358        O  0.07518810  0.36639392  0.95091744    -0.74200
O359        O  0.03178282  0.41263784  0.95144490    -0.74200
O360        O  0.12094686  0.40884055  0.95053950    -0.74300
O361        O  0.12147971  0.40980511  0.03855887    -0.74200
O362        O  0.03252714  0.41308040  0.03997323    -0.74200
O363        O  0.07491650  0.36657604  0.03888447    -0.74200
O364        O  0.07864991  0.45561509  0.03885406    -0.74200
Ni365      Ni  0.07644809  0.41079062  0.94766731     1.25400
Ni366      Ni  0.07694461  0.41120233  0.04219464     1.25400
C367        C  0.07857977  0.47008475  0.99448942     0.88000
C368        C  0.07502093  0.35154393  0.99484415     0.88000
C369        C  0.01754408  0.41398763  0.99602498     0.88000
C370        C  0.13611301  0.40870092  0.99439972     0.88200
O371        O  0.02832734  0.41084450  0.54499782    -0.74100
O372        O  0.11730019  0.40567906  0.54641384    -0.74200
O373        O  0.07575633  0.45302989  0.54777927    -0.74200
O374        O  0.07057430  0.36402282  0.54408333    -0.74300
O375        O  0.07015309  0.36505758  0.45606843    -0.74200
O376        O  0.07562312  0.45384047  0.45926807    -0.74200
O377        O  0.11742991  0.40759101  0.45844599    -0.74200
O378        O  0.02862997  0.41180608  0.45646663    -0.74200
Ni379      Ni  0.07290143  0.40838829  0.54899616     1.25400
Ni380      Ni  0.07298969  0.40955701  0.45446821     1.25400
C381        C  0.01387036  0.41204337  0.50042713     0.88000
C382        C  0.13224932  0.40613976  0.50258432     0.88000
C383        C  0.07669027  0.46806205  0.50395144     0.88000
C384        C  0.06978006  0.34965116  0.49952157     0.88200
C385        C  0.05355265  0.21780412  0.71924329    -0.26000
C386        C  0.07542461  0.23493154  0.69027738    -0.14100
C387        C  0.09909680  0.25132618  0.71774761     0.36500
C388        C  0.10003181  0.25073566  0.77337355    -0.25500
C389        C  0.07764832  0.23417729  0.80240784    -0.14700
C390        C  0.05412732  0.21761387  0.77484912     0.37600
N391        N  0.03005901  0.20125913  0.80245039    -0.89000
H392        H  0.03583235  0.20474605  0.69819588     0.18700
H393        H  0.11818985  0.26344829  0.79416387     0.18700
N394        N  0.12271764  0.26826964  0.69006414    -0.88000
H395        H  0.04014770  0.18390781  0.82553510     0.36100
H396        H  0.01887368  0.21688965  0.82768445     0.41200
H397        H  0.13394177  0.25304643  0.66418871     0.40800
H398        H  0.11212547  0.28562678  0.66760200     0.35700
C399        C  0.04771328  0.24001995  0.21574614    -0.26000
C400        C  0.07660869  0.23783967  0.19037531    -0.14100
C401        C  0.10389863  0.23445795  0.22150318     0.36500
C402        C  0.10145415  0.23355776  0.27700978    -0.25500
C403        C  0.07253364  0.23571560  0.30235060    -0.14700
C404        C  0.04523960  0.23851877  0.27114742     0.37600
N405        N  0.01471175  0.23969560  0.29402297    -0.89000
H406        H  0.02672831  0.24218894  0.19205597     0.18700
H407        H  0.12237464  0.23107881  0.30073519     0.18700
N408        N  0.13427245  0.23136891  0.19845061    -0.88000
H409        H  0.00244197  0.22003788  0.28116274     0.36100
H410        H  0.01533983  0.23884220  0.33537986     0.41200
H411        H  0.13341886  0.23165577  0.15706430     0.40800
H412        H  0.14748050  0.25065685  0.21019783     0.35700
C413        C  0.23329571  0.09993112  0.77872352    -0.26000
C414        C  0.25396314  0.07986041  0.80477573    -0.14100
C415        C  0.27499186  0.06240150  0.77417491     0.36500
C416        C  0.27381842  0.06386753  0.71853162    -0.23900
C417        C  0.25225375  0.08285505  0.69237602    -0.14700
C418        C  0.23243892  0.10184188  0.72312804     0.37600
N419        N  0.21187762  0.12381401  0.69912004    -0.89000
H420        H  0.21762485  0.11413082  0.80185293     0.18700
H421        H  0.28948757  0.04959405  0.69552249     0.18700
N422        N  0.29726295  0.04272166  0.79945058    -0.88000
H423        H  0.19572058  0.11206353  0.67539248     0.36100
H424        H  0.22503037  0.13855192  0.67498288     0.41200
H425        H  0.29409018  0.02023288  0.78486889     0.40800
H426        H  0.31945388  0.05018120  0.78815555     0.35700
C427        C  0.23889901  0.04348356  0.22133424    -0.26000
C428        C  0.25006288  0.06914237  0.19291406    -0.14100
C429        C  0.26066554  0.09564423  0.22095178     0.36500
C430        C  0.25999523  0.09595108  0.27659079    -0.25500
C431        C  0.24890193  0.07023398  0.30494651    -0.14700
C432        C  0.23839433  0.04378696  0.27694206     0.37600
N433        N  0.22768379  0.01677418  0.30432946    -0.89000
H434        H  0.23085585  0.02302227  0.20015219     0.18700
H435        H  0.26821572  0.11630495  0.29786972     0.18700
N436        N  0.27202885  0.12252744  0.19376510    -0.88000
H437        H  0.20873357  0.02290040  0.32789306     0.36100
H438        H  0.24554549  0.00894849  0.32910410     0.41200
H439        H  0.25447498  0.13048542  0.16846934     0.40800
H440        H  0.29102701  0.11602217  0.17063006     0.35700
C441        C  0.44562220  0.22770118  0.78175604    -0.26000
C442        C  0.42326918  0.24537438  0.80831014    -0.14100
C443        C  0.40227080  0.26356648  0.77855056     0.36500
C444        C  0.40406636  0.26366018  0.72313479    -0.25500
C445        C  0.42631897  0.24582962  0.69649992    -0.14700
C446        C  0.44740481  0.22766835  0.72608337     0.37600
N447        N  0.47106040  0.20998021  0.69979054    -0.89000
H448        H  0.46175957  0.21392568  0.80475716     0.18700
H449        H  0.38765492  0.27737653  0.70054272     0.18700
N450        N  0.37838790  0.28141987  0.80345212    -0.88000
H451        H  0.46025310  0.19233708  0.67795991     0.36100
H452        H  0.48476649  0.19856505  0.72778598     0.41200
H453        H  0.38873611  0.29810818  0.82800047     0.40800
H454        H  0.36495881  0.26656243  0.82690357     0.35700
C455        C  0.43891860  0.26681207  0.22413470    -0.26000
C456        C  0.42314076  0.24304018  0.19657990    -0.14100
C457        C  0.40695977  0.22033423  0.22602578     0.36500
C458        C  0.40755720  0.22129058  0.28183913    -0.25500
C459        C  0.42329009  0.24512286  0.30932615    -0.14700
C460        C  0.43858959  0.26842362  0.27981166     0.37600
N461        N  0.45346024  0.29406065  0.30608973    -0.89000
H462        H  0.45130076  0.28455961  0.20218809     0.18700
H463        H  0.39509750  0.20363644  0.30388817     0.18700
N464        N  0.38914478  0.19677443  0.19940264    -0.88000
H465        H  0.44245639  0.31435679  0.29360917     0.36100
H466        H  0.47645822  0.29539918  0.29324946     0.41200
H467        H  0.36604843  0.19857918  0.21182164     0.40800
H468        H  0.39748178  0.17517795  0.21150964     0.35700
C469        C  0.24084847  0.37796707  0.77779226    -0.26000
C470        C  0.25437872  0.40302047  0.80526465    -0.14100
C471        C  0.26720522  0.42799797  0.77632940     0.36500
C472        C  0.26558283  0.42784199  0.72080926    -0.25500
C473        C  0.25142683  0.40312043  0.69336605    -0.14700
C474        C  0.23947669  0.37768938  0.72221388     0.37600
N475        N  0.22621130  0.35121980  0.69592359    -0.89000
H476        H  0.23109673  0.35866714  0.79975632     0.18700
H477        H  0.27509092  0.44728420  0.69888854     0.18700
N478        N  0.28133363  0.45407089  0.80248810    -0.88000
H479        H  0.20727052  0.35851028  0.67315076     0.36100
H480        H  0.24292894  0.34203929  0.67036701     0.41200
H481        H  0.26498466  0.46391910  0.82801109     0.40800
H482        H  0.30003965  0.44617733  0.82522453     0.35700
C483        C  0.22386330  0.42636679  0.21818809    -0.26000
C484        C  0.24771832  0.40983402  0.19303863    -0.14100
C485        C  0.27007202  0.39461614  0.22466378     0.36500
C486        C  0.26854759  0.39669305  0.28021647    -0.25500
C487        C  0.24485963  0.41345313  0.30540115    -0.14700
C488        C  0.22213498  0.42815275  0.27379594     0.37600
N489        N  0.19725332  0.44494452  0.29789333    -0.89000
H490        H  0.20655610  0.43820650  0.19444685     0.18700
H491        H  0.28584517  0.38482001  0.30393599     0.18700
N492        N  0.29414764  0.37666722  0.20054783    -0.88000
H493        H  0.17633050  0.43450744  0.28604043     0.36100
H494        H  0.19739776  0.46738503  0.28252450     0.41200
H495        H  0.29241403  0.35394946  0.21473651     0.40800
H496        H  0.31557487  0.38576132  0.21297252     0.35700
N497        N  0.21464947  0.90493195  0.05234379    -0.36300
N498        N  0.28246410  0.90702282  0.05567511    -0.56900
N499        N  0.28281607  0.91352400  0.94158736    -0.36300
N500        N  0.21504048  0.90813115  0.93850187    -0.56900
C501        C  0.22098812  0.89399279  0.10147305     0.27300
C502        C  0.18523095  0.89613693  0.03996144     0.27300
C503        C  0.31277076  0.90640337  0.95273859     0.27300
C504        C  0.27724813  0.90521533  0.89052071     0.27300
C505        C  0.27527270  0.91228136  0.10703983     0.35900
C506        C  0.31140213  0.91863440  0.04830254     0.35900
C507        C  0.18489334  0.91511857  0.94763992     0.35900
C508        C  0.22127857  0.91712963  0.88830141     0.35900
C509        C  0.19565360  0.87745226  0.12027150    -0.21600
C510        C  0.17314439  0.87854034  0.08125001    -0.21600
C511        C  0.32601748  0.89259025  0.90831443    -0.21600
C512        C  0.30373231  0.89234623  0.86888694    -0.21600
C513        C  0.29950083  0.92751881  0.13253098    -0.22700
C514        C  0.32229936  0.93187727  0.09521804    -0.22700
C515        C  0.17227986  0.92927059  0.90295294    -0.22700
C516        C  0.19513568  0.92983011  0.86508944    -0.22700
C517        C  0.24773770  0.90177505  0.13145794    -0.18000
C518        C  0.16867465  0.90624862  0.99436372    -0.18000
C519        C  0.24962663  0.91161625  0.86225494    -0.18000
C520        C  0.32843497  0.91452431  0.00077106    -0.18000
H521        H  0.19344387  0.86626525  0.15849918     0.14900
H522        H  0.15044995  0.86771805  0.08353408     0.14900
H523        H  0.34918750  0.88332087  0.90419248     0.14900
H524        H  0.30671810  0.88370942  0.82886309     0.14900
H525        H  0.30054941  0.93490246  0.17360219     0.13200
H526        H  0.34410431  0.94378985  0.10233618     0.13200
H527        H  0.14924022  0.93855454  0.89734279     0.13200
H528        H  0.19281223  0.93879901  0.82519487     0.13200
H529        H  0.22799376  0.92105844  0.03171231     0.26400
H530        H  0.26818997  0.92670682  0.96535253     0.26400
N531        N  0.28027906  0.91032894  0.43919737    -0.36300
N532        N  0.28098597  0.91470851  0.55372599    -0.56900
N533        N  0.21349144  0.90943413  0.55476503    -0.36300
N534        N  0.21239483  0.90826422  0.44025316    -0.56900
C535        C  0.30923365  0.92164878  0.44872617     0.27300
C536        C  0.27281617  0.91725066  0.38839425     0.27300
C537        C  0.22015423  0.91951754  0.60443831     0.27300
C538        C  0.18369708  0.91727938  0.54403108     0.27300
C539        C  0.31112540  0.90818450  0.54390870     0.35900
C540        C  0.27585499  0.90720570  0.60502965     0.35900
C541        C  0.21841099  0.89894138  0.39008900     0.35900
C542        C  0.18291451  0.89920737  0.45104536     0.35900
C543        C  0.31993083  0.93663339  0.40347006    -0.21600
C544        C  0.29705206  0.93352677  0.36525278    -0.21600
C545        C  0.19459009  0.93430643  0.62561230    -0.21600
C546        C  0.17172488  0.93345286  0.58715192    -0.21600
C547        C  0.32479254  0.89572802  0.58922558    -0.22700
C548        C  0.30262322  0.89582178  0.62813378    -0.22700
C549        C  0.19291173  0.88347384  0.36897412    -0.22700
C550        C  0.17045911  0.88345173  0.40763934    -0.22700
C551        C  0.32651500  0.91626313  0.49602412    -0.18000
C552        C  0.24554988  0.90706312  0.36189763    -0.18000
C553        C  0.16690189  0.90759864  0.49809029    -0.18000
C554        C  0.24793389  0.91307612  0.63200349    -0.18000
H555        H  0.34179027  0.94870798  0.39807338     0.14900
H556        H  0.29811885  0.94224266  0.32503874     0.14900
H557        H  0.19263062  0.94466343  0.66462312     0.14900
H558        H  0.14896946  0.94370239  0.59108472     0.14900
H559        H  0.34810729  0.88702589  0.59447124     0.13200
H560        H  0.30583799  0.88825176  0.66870324     0.13200
H561        H  0.19061832  0.87355949  0.32962146     0.13200
H562        H  0.14774405  0.87280521  0.40378148     0.13200
H563        H  0.26775027  0.89546264  0.46382581     0.26400
H564        H  0.22728270  0.89459580  0.53223456     0.26400
N565        N  0.42352302  0.71018143  0.05294570    -0.36300
N566        N  0.42358373  0.71085528  0.93890266    -0.56900
N567        N  0.42028844  0.77850176  0.94086017    -0.36300
N568        N  0.42287661  0.77784507  0.05480151    -0.56900
C569        C  0.43430301  0.68154041  0.04093631     0.27300
C570        C  0.43329192  0.71726213  0.10271318     0.27300
C571        C  0.42976014  0.77222577  0.89100124     0.27300
C572        C  0.42974627  0.80770800  0.95251323     0.27300
C573        C  0.41718785  0.68049199  0.94742846     0.35900
C574        C  0.41492720  0.71712377  0.88842284     0.35900
C575        C  0.41472765  0.77105108  0.10513685     0.35900
C576        C  0.41362920  0.80727839  0.04575398     0.35900
C577        C  0.45202403  0.67077536  0.08325706    -0.21600
C578        C  0.45118041  0.69325576  0.12235130    -0.21600
C579        C  0.44600815  0.79735861  0.87082375    -0.21600
C580        C  0.44624742  0.81975517  0.90989044    -0.21600
C581        C  0.40367645  0.66771635  0.90205644    -0.22700
C582        C  0.40252417  0.69087626  0.86465908    -0.22700
C583        C  0.39959373  0.79598485  0.12800734    -0.22700
C584        C  0.39876335  0.81894817  0.09029836    -0.22700
C585        C  0.42606401  0.66447101  0.99442019    -0.18000
C586        C  0.42394685  0.74380091  0.13165726    -0.18000
C587        C  0.42136054  0.82389686  0.99919456    -0.18000
C588        C  0.42150924  0.74532980  0.86235658    -0.18000
H589        H  0.46439222  0.64906261  0.08600662     0.14900
H590        H  0.46222137  0.69198331  0.16096711     0.14900
H591        H  0.45629603  0.79942138  0.83184287     0.14900
H592        H  0.45739624  0.84222825  0.90686204     0.14900
H593        H  0.39547998  0.64432080  0.89558105     0.13200
H594        H  0.39397370  0.68856058  0.82435910     0.13200
H595        H  0.39040941  0.79759866  0.16784650     0.13200
H596        H  0.38827445  0.84148022  0.09550188     0.13200
H597        H  0.40713594  0.72263498  0.03110272     0.26400
H598        H  0.40493780  0.76496271  0.96309132     0.26400
N599        N  0.42240225  0.77958055  0.55518205    -0.36300
N600        N  0.42724563  0.71192745  0.55464790    -0.56900
N601        N  0.42424025  0.71210668  0.44077562    -0.36300
N602        N  0.42217507  0.77982173  0.44125412    -0.56900
C603        C  0.43285621  0.77316485  0.60452639     0.27300
C604        C  0.43040691  0.80925640  0.54432100     0.27300
C605        C  0.43536225  0.68340065  0.45132204     0.27300
C606        C  0.43306918  0.71971028  0.39096694     0.27300
C607        C  0.41818676  0.71811738  0.60482694     0.35900
C608        C  0.41947583  0.68200751  0.54480186     0.35900
C609        C  0.41220244  0.80886373  0.45178010     0.35900
C610        C  0.41309656  0.77305040  0.39115978     0.35900
C611        C  0.44821966  0.79878301  0.62532580    -0.21600
C612        C  0.44700596  0.82155863  0.58700824    -0.21600
C613        C  0.45226128  0.67302546  0.40795537    -0.21600
C614        C  0.45066409  0.69589761  0.36979335    -0.21600
C615        C  0.40397862  0.69239672  0.62689177    -0.22700
C616        C  0.40471430  0.66950018  0.58890086    -0.22700
C617        C  0.39587064  0.82029151  0.40844886    -0.22700
C618        C  0.39645385  0.79752739  0.37001118    -0.22700
C619        C  0.42591821  0.74564695  0.63217564    -0.18000
C620        C  0.42056670  0.82546459  0.49839650    -0.18000
C621        C  0.42304914  0.74645165  0.36328110    -0.18000
C622        C  0.42801112  0.66608564  0.49765383    -0.18000
H623        H  0.45894684  0.80086996  0.66412710     0.14900
H624        H  0.45717970  0.84447386  0.59061433     0.14900
H625        H  0.46458447  0.65136146  0.40389084     0.14900
H626        H  0.46103973  0.69497864  0.33075579     0.14900
H627        H  0.39471880  0.69018939  0.66660280     0.13200
H628        H  0.39527999  0.64649033  0.59400048     0.13200
H629        H  0.38472833  0.84260141  0.40454016     0.13200
H630        H  0.38643656  0.79906777  0.33062797     0.13200
H631        H  0.40723552  0.76568319  0.53295890     0.26400
H632        H  0.40823598  0.72426095  0.46372127     0.26400
N633        N  0.21704413  0.56952675  0.05030547    -0.36300
N634        N  0.28470911  0.57353876  0.05346509    -0.56900
N635        N  0.28524660  0.57773824  0.93955792    -0.36300
N636        N  0.21742764  0.57747622  0.93604178    -0.56900
C637        C  0.22267139  0.57766226  0.10147599     0.27300
C638        C  0.18714208  0.57682843  0.03934427     0.27300
C639        C  0.31503490  0.58489595  0.95227550     0.27300
C640        C  0.27946255  0.58970923  0.89097603     0.27300
C641        C  0.27815454  0.56441118  0.10343885     0.35900
C642        C  0.31428558  0.56482663  0.04382984     0.35900
C643        C  0.18808383  0.56661459  0.94272386     0.35900
C644        C  0.22431930  0.57395572  0.88399908     0.35900
C645        C  0.19630006  0.59059739  0.12329542    -0.21600
C646        C  0.17398180  0.59046193  0.08402425    -0.21600
C647        C  0.32800780  0.60242580  0.91173280    -0.21600
C648        C  0.30559393  0.60526987  0.87288244    -0.21600
C649        C  0.30342785  0.54974444  0.12593924    -0.22700
C650        C  0.32616511  0.54937114  0.08781003    -0.22700
C651        C  0.17660854  0.55571717  0.89438442    -0.22700
C652        C  0.19938193  0.56084056  0.85721531    -0.22700
C653        C  0.25029143  0.57135758  0.12976890    -0.18000
C654        C  0.17134652  0.56926059  0.99119440    -0.18000
C655        C  0.25255645  0.58348366  0.86040061    -0.18000
C656        C  0.33094834  0.57359204  0.99767917    -0.18000
H657        H  0.19343481  0.59920833  0.16336890     0.14900
H658        H  0.15087648  0.59986235  0.08830626     0.14900
H659        H  0.35121514  0.61202755  0.90981319     0.14900
H660        H  0.30841771  0.61682423  0.83509403     0.14900
H661        H  0.30513389  0.54008410  0.16545084     0.13200
H662        H  0.34868398  0.53872301  0.09257194     0.13200
H663        H  0.15448097  0.54478009  0.88592741     0.13200
H664        H  0.19792842  0.55509579  0.81542050     0.13200
H665        H  0.23159786  0.55642285  0.02610626     0.26400
H666        H  0.27112939  0.56191431  0.95961068     0.26400
N667        N  0.28685821  0.57846739  0.55024230    -0.36300
N668        N  0.21924321  0.57602562  0.55487046    -0.56900
N669        N  0.21741901  0.56851295  0.44081094    -0.36300
N670        N  0.28509260  0.57445389  0.43604893    -0.56900
C671        C  0.28130000  0.58998461  0.59934438     0.27300
C672        C  0.31616205  0.58680723  0.53687644     0.27300
C673        C  0.18751166  0.57519787  0.45271570     0.27300
C674        C  0.22223429  0.57684979  0.38966804     0.27300
C675        C  0.22704626  0.57193736  0.60638237     0.35900
C676        C  0.19027506  0.56412087  0.54863823     0.35900
C677        C  0.31524556  0.56718759  0.44465261     0.35900
C678        C  0.27817271  0.56519304  0.38608656     0.35900
C679        C  0.30709590  0.60630723  0.61723519    -0.21600
C680        C  0.32899853  0.60457807  0.57760934    -0.21600
C681        C  0.17347902  0.58867409  0.40863214    -0.21600
C682        C  0.19530856  0.58937085  0.36878959    -0.21600
C683        C  0.20317914  0.55722862  0.63316334    -0.22700
C684        C  0.18002397  0.55186151  0.59650744    -0.22700
C685        C  0.32719566  0.55256161  0.39991181    -0.22700
C686        C  0.30381607  0.55185560  0.36255647    -0.22700
C687        C  0.25465547  0.58329327  0.62990984    -0.18000
C688        C  0.33203079  0.57614765  0.49099840    -0.18000
C689        C  0.24959323  0.57089912  0.36058547    -0.18000
C690        C  0.17259671  0.56720283  0.50124690    -0.18000
H691        H  0.30998114  0.61784235  0.65516804     0.14900
H692        H  0.35180745  0.61510916  0.57907751     0.14900
H693        H  0.15009188  0.59750840  0.40508394     0.14900
H694        H  0.19171536  0.59790869  0.32887919     0.14900
H695        H  0.20258935  0.55092914  0.67471526     0.13200
H696        H  0.15839812  0.54000918  0.60483856     0.13200
H697        H  0.35012205  0.54308219  0.39406565     0.13200
H698        H  0.30538176  0.54237046  0.32282886     0.13200
H699        H  0.27303101  0.56234755  0.53002752     0.26400
H700        H  0.23259050  0.55561262  0.46433799     0.26400
N701        N  0.07065314  0.70271391  0.94057585    -0.36300
N702        N  0.06943917  0.70217825  0.05461002    -0.56900
N703        N  0.06679386  0.76965306  0.05602364    -0.36300
N704        N  0.07049771  0.77016160  0.94138293    -0.56900
C705        C  0.08112047  0.67392417  0.95168328     0.27300
C706        C  0.08063431  0.70998555  0.89136187     0.27300
C707        C  0.07538127  0.76266537  0.10637754     0.27300
C708        C  0.07638657  0.79907806  0.04604821     0.27300
C709        C  0.06283761  0.67213146  0.04408782     0.35900
C710        C  0.06051606  0.70748383  0.10507065     0.35900
C711        C  0.06322583  0.76409126  0.89010815     0.35900
C712        C  0.06172577  0.79969590  0.95116871     0.35900
C713        C  0.09863171  0.66315471  0.90925467    -0.21600
C714        C  0.09799882  0.68585572  0.87090612    -0.21600
C715        C  0.09083845  0.78768100  0.12883233    -0.21600
C716        C  0.09190418  0.81050626  0.09064979    -0.21600
C717        C  0.04865523  0.65855990  0.08780933    -0.22700
C718        C  0.04761551  0.68094134  0.12675825    -0.22700
C719        C  0.04928877  0.78956601  0.86709201    -0.22700
C720        C  0.04794605  0.81203469  0.90588577    -0.22700
C721        C  0.07288888  0.65677720  0.99752050    -0.18000
C722        C  0.07171844  0.73670254  0.86327731    -0.18000
C723        C  0.06932180  0.81588178  0.99883897    -0.18000
C724        C  0.06780196  0.73485356  0.13307661    -0.18000
H725        H  0.11064815  0.64127756  0.90584065     0.14900
H726        H  0.10879415  0.68466230  0.83222326     0.14900
H727        H  0.10055184  0.78922241  0.16846434     0.14900
H728        H  0.10328771  0.83271489  0.09571924     0.14900
H729        H  0.04019557  0.63502262  0.09190083     0.13200
H730        H  0.03890589  0.67792017  0.16667639     0.13200
H731        H  0.04110246  0.79175562  0.82658955     0.13200
H732        H  0.03775219  0.83468638  0.90073435     0.13200
H733        H  0.05435432  0.71515796  0.96244200     0.26400
H734        H  0.05219501  0.75623021  0.03189647     0.26400
N735        N  0.06579733  0.76823831  0.44053922    -0.36300
N736        N  0.07028698  0.70048674  0.44184464    -0.56900
N737        N  0.07109528  0.70155466  0.55589011    -0.36300
N738        N  0.06934419  0.76916233  0.55459952    -0.56900
C739        C  0.07465447  0.76112692  0.39053677     0.27300
C740        C  0.07502940  0.79782151  0.45054917     0.27300
C741        C  0.08189865  0.67275587  0.54542505     0.27300
C742        C  0.08051362  0.70927143  0.60548661     0.27300
C743        C  0.06097523  0.70561564  0.39139042     0.35900
C744        C  0.06421139  0.67032106  0.45229110     0.35900
C745        C  0.05976177  0.79836047  0.54448835     0.35900
C746        C  0.06155045  0.76294851  0.60534351     0.35900
C747        C  0.08985877  0.78625287  0.36828454    -0.21600
C748        C  0.09054166  0.80927805  0.40634578    -0.21600
C749        C  0.09904194  0.66243331  0.58878234    -0.21600
C750        C  0.09779446  0.68536918  0.62692333    -0.21600
C751        C  0.04837066  0.67885281  0.36962109    -0.22700
C752        C  0.05003830  0.65651075  0.40842330    -0.22700
C753        C  0.04485564  0.81035885  0.58880932    -0.22700
C754        C  0.04624706  0.78793467  0.62754182    -0.22700
C755        C  0.06710141  0.73327972  0.36366585    -0.18000
C756        C  0.06772332  0.81463778  0.49754718    -0.18000
C757        C  0.07148475  0.73634316  0.63279953    -0.18000
C758        C  0.07423677  0.65521587  0.49929891    -0.18000
H759        H  0.09956649  0.78776277  0.32879916     0.14900
H760        H  0.10159933  0.83165060  0.40150379     0.14900
H761        H  0.11129677  0.64074109  0.59295925     0.14900
H762        H  0.10831746  0.68453955  0.66599656     0.14900
H763        H  0.03926426  0.67571660  0.32983226     0.13200
H764        H  0.04171784  0.63291878  0.40421263     0.13200
H765        H  0.03414313  0.83284171  0.59325199     0.13200
H766        H  0.03754367  0.78995016  0.66765360     0.13200
H767        H  0.05120097  0.75471861  0.46423456     0.26400
H768        H  0.05499125  0.71377742  0.53315382     0.26400
O769        O  0.42272584  0.96191521  0.04559115    -0.74100
O770        O  0.42384356  0.87311210  0.04374556    -0.74200
O771        O  0.46763677  0.91781523  0.04319281    -0.74200
O772        O  0.37846674  0.91602939  0.04512207    -0.74300
O773        O  0.37775267  0.91976184  0.95731824    -0.74200
O774        O  0.46648106  0.91603915  0.95467275    -0.74200
O775        O  0.41982749  0.87354128  0.95579034    -0.74200
O776        O  0.42402475  0.96233084  0.95708500    -0.74200
Ni777      Ni  0.42316165  0.91735185  0.04763325     1.25400
Ni778      Ni  0.42201421  0.91798844  0.95308288     1.25400
C779        C  0.42366993  0.97673746  0.00160940     0.88000
C780        C  0.42163072  0.85854025  0.99957805     0.88000
C781        C  0.48164662  0.91618179  0.99847809     0.88000
C782        C  0.36323042  0.91712399  0.00128572     0.88200
O783        O  0.42180554  0.96390090  0.54307057    -0.74100
O784        O  0.41796449  0.87501283  0.54259318    -0.74200
O785        O  0.46441830  0.91761857  0.54579118    -0.74200
O786        O  0.37578538  0.92142562  0.54022391    -0.74300
O787        O  0.37654837  0.91770946  0.45241761    -0.74200
O788        O  0.46563886  0.91987153  0.45733315    -0.74200
O789        O  0.42216224  0.87486177  0.45467636    -0.74200
O790        O  0.42046829  0.96377345  0.45454793    -0.74200
Ni791      Ni  0.41994537  0.91953556  0.54606573     1.25400
Ni792      Ni  0.42123654  0.91919381  0.45153522     1.25400
C793        C  0.42120562  0.97846372  0.49883904     0.88000
C794        C  0.42010061  0.86013687  0.49859835     0.88000
C795        C  0.47960079  0.91794397  0.50223448     0.88000
C796        C  0.36129395  0.91884406  0.49597362     0.88200
O797        O  0.46934428  0.56919140  0.04341571    -0.74100
O798        O  0.38055488  0.57262341  0.04165758    -0.74200
O799        O  0.42339257  0.52608019  0.04432714    -0.74200
O800        O  0.42616043  0.61535575  0.04043775    -0.74300
O801        O  0.42671614  0.61381821  0.95240581    -0.74200
O802        O  0.42369404  0.52471685  0.95584290    -0.74200
O803        O  0.38044561  0.57033056  0.95357049    -0.74200
O804        O  0.46940145  0.56770410  0.95486912    -0.74200
Ni805      Ni  0.42486936  0.57083968  0.04558788     1.25400
Ni806      Ni  0.42504083  0.56914746  0.95103230     1.25400
C807        C  0.48392507  0.56752276  0.99932853     0.88000
C808        C  0.36568008  0.57209828  0.99756766     0.88000
C809        C  0.42354521  0.51070772  0.00063059     0.88000
C810        C  0.42649895  0.62951651  0.99572159     0.88200
O811        O  0.42401847  0.52726666  0.45027167    -0.74100
O812        O  0.42881964  0.61658541  0.45202438    -0.74200
O813        O  0.47108499  0.56944985  0.45355736    -0.74200
O814        O  0.38224808  0.57464650  0.44883239    -0.74300
O815        O  0.38107036  0.57322584  0.53688782    -0.74200
O816        O  0.46994557  0.56911736  0.54208305    -0.74200
O817        O  0.42803291  0.61587667  0.54005870    -0.74200
O818        O  0.42321984  0.52707159  0.53877797    -0.74200
Ni819      Ni  0.42667202  0.57198153  0.44799722     1.25400
Ni820      Ni  0.42550756  0.57137972  0.54253760     1.25400
C821        C  0.42292678  0.51251497  0.49441337     0.88000
C822        C  0.42855246  0.63115633  0.49647872     0.88000
C823        C  0.48508442  0.56818827  0.49850364     0.88000
C824        C  0.36681835  0.57465164  0.49217092     0.88200
O825        O  0.03191962  0.56161320  0.95378830    -0.74100
O826        O  0.12072349  0.56660369  0.94896429    -0.74200
O827        O  0.07842821  0.51900707  0.95049120    -0.74200
O828        O  0.07358894  0.60775428  0.95238151    -0.74300
O829        O  0.07873592  0.60736117  0.04020463    -0.74200
O830        O  0.07776542  0.51860484  0.03901158    -0.74200
O831        O  0.12262606  0.56260370  0.03661091    -0.74200
O832        O  0.03369413  0.56368169  0.04227577    -0.74200
Ni833      Ni  0.07617378  0.56357182  0.94820006     1.25400
Ni834      Ni  0.07829022  0.56295696  0.04268611     1.25400
C835        C  0.01824521  0.56353705  0.99870817     0.88000
C836        C  0.13655721  0.56580172  0.99209182     0.88000
C837        C  0.07838982  0.50418196  0.99456044     0.88000
C838        C  0.07528222  0.62228621  0.99669716     0.88200
O839        O  0.07991546  0.51727912  0.54802386    -0.74100
O840        O  0.07593902  0.60629432  0.54501162    -0.74200
O841        O  0.03382829  0.56014494  0.54636758    -0.74200
O842        O  0.12296004  0.56472984  0.54632113    -0.74300
O843        O  0.12293110  0.56033042  0.45860245    -0.74200
O844        O  0.03411346  0.56144709  0.45782079    -0.74200
O845        O  0.07922740  0.60526036  0.45707504    -0.74200
O846        O  0.07770633  0.51643675  0.45957650    -0.74200
Ni847      Ni  0.07830695  0.56199861  0.54968719     1.25400
Ni848      Ni  0.07854228  0.56075774  0.45518121     1.25400
C849        C  0.07838665  0.50220303  0.50410232     0.88000
C850        C  0.07672660  0.62057933  0.50049804     0.88000
C851        C  0.01938322  0.56129202  0.50186554     0.88000
C852        C  0.13782716  0.56372569  0.50230995     0.88200
O853        O  0.07637997  0.95442382  0.95326403    -0.74100
O854        O  0.07179896  0.86545139  0.95453141    -0.74200
O855        O  0.02956686  0.91222900  0.95510329    -0.74200
O856        O  0.11830461  0.90726947  0.95241783    -0.74300
O857        O  0.11961924  0.90844349  0.04046713    -0.74200
O858        O  0.03057966  0.91289484  0.04365073    -0.74200
O859        O  0.07209805  0.86594053  0.04252587    -0.74200
O860        O  0.07736250  0.95487173  0.04178725    -0.74200
Ni861      Ni  0.07396206  0.90984417  0.95072396     1.25400
Ni862      Ni  0.07503509  0.91048436  0.04526900     1.25400
C863        C  0.07722070  0.96929482  0.99739644     0.88000
C864        C  0.07110658  0.85078626  0.99868034     0.88000
C865        C  0.01549916  0.91357169  0.99974671     0.88000
C866        C  0.13383052  0.90726458  0.99582606     0.88200
O867        O  0.02836130  0.91018015  0.54538325    -0.74100
O868        O  0.11758061  0.90646007  0.54334970    -0.74200
O869        O  0.07513297  0.95305080  0.54631579    -0.74200
O870        O  0.07114093  0.86392268  0.54292732    -0.74300
O871        O  0.06989569  0.86480206  0.45487442    -0.74200
O872        O  0.07400348  0.95370258  0.45781219    -0.74200
O873        O  0.11667687  0.90820098  0.45529822    -0.74200
O874        O  0.02781711  0.91091130  0.45684460    -0.74200
Ni875      Ni  0.07307174  0.90836780  0.54768820     1.25400
Ni876      Ni  0.07212442  0.90937164  0.45313736     1.25400
C877        C  0.01346584  0.91111544  0.50120097     0.88000
C878        C  0.13201767  0.90724909  0.49894656     0.88000
C879        C  0.07515198  0.96802480  0.50240651     0.88000
C880        C  0.06964195  0.84948367  0.49842912     0.88200
C881        C  0.05099849  0.71791199  0.71951416    -0.26000
C882        C  0.07226566  0.73655404  0.69191990    -0.14100
C883        C  0.09408492  0.75460068  0.72087261     0.36500
C884        C  0.09356439  0.75431728  0.77650583    -0.25500
C885        C  0.07189581  0.73605334  0.80410486    -0.14700
C886        C  0.05056019  0.71749399  0.77507793     0.37600
N887        N  0.02778585  0.69857693  0.80107054    -0.89000
H888        H  0.03459925  0.70364953  0.69750808     0.18700
H889        H  0.11028523  0.76828878  0.79842569     0.18700
N890        N  0.11749820  0.77269566  0.69481056    -0.88000
H891        H  0.03912385  0.68184854  0.82378246     0.36100
H892        H  0.01482567  0.71268389  0.82641551     0.41200
H893        H  0.13030772  0.75797866  0.67024683     0.40800
H894        H  0.10668150  0.78933468  0.67116358     0.35700
C895        C  0.04392884  0.74778686  0.21996057    -0.26000
C896        C  0.06852767  0.73405351  0.19225985    -0.14100
C897        C  0.09256602  0.71916570  0.22128791     0.36500
C898        C  0.09133756  0.71874771  0.27703015    -0.25500
C899        C  0.06694664  0.73295420  0.30449469    -0.14700
C900        C  0.04286935  0.74715322  0.27547446     0.37600
N901        N  0.01671429  0.76045882  0.30164934    -0.89000
H902        H  0.02520002  0.75874678  0.19817243     0.18700
H903        H  0.10979458  0.70758780  0.29916711     0.18700
N904        N  0.11850684  0.70441201  0.19591551    -0.88000
H905        H  0.00605307  0.74328157  0.32466006     0.36100
H906        H  0.02457234  0.77815000  0.32681384     0.41200
H907        H  0.11755228  0.70660742  0.15472697     0.40800
H908        H  0.13869395  0.71604889  0.20819445     0.35700
C909        C  0.23745262  0.60703155  0.77291012    -0.26000
C910        C  0.25478349  0.58503991  0.80127141    -0.14100
C911        C  0.27388303  0.56427074  0.77317713     0.36500
C912        C  0.27446105  0.56491922  0.71746219    -0.23900
C913        C  0.25623428  0.58605603  0.68897077    -0.14700
C914        C  0.23817714  0.60788590  0.71722176     0.37600
N915        N  0.22073220  0.63134700  0.69034859    -0.89000
H916        H  0.22316972  0.62348665  0.79421480     0.18700
H917        H  0.28849348  0.54819804  0.69626317     0.18700
N918        N  0.29209438  0.54190184  0.80121988    -0.88000
H919        H  0.20421221  0.62067939  0.66575057     0.36100
H920        H  0.23601806  0.64410150  0.66661825     0.41200
H921        H  0.28548094  0.51981573  0.78793356     0.40800
H922        H  0.31540816  0.54540548  0.79123790     0.35700
C923        C  0.23487769  0.54773761  0.21629975    -0.26000
C924        C  0.24991196  0.57182640  0.18900366    -0.14100
C925        C  0.26425667  0.59603473  0.21836838     0.36500
C926        C  0.26354276  0.59550390  0.27400960    -0.25500
C927        C  0.24865420  0.57130102  0.30131557    -0.14700
C928        C  0.23423239  0.54721765  0.27192910     0.37600
N929        N  0.21954908  0.52154296  0.29772371    -0.89000
H930        H  0.22388763  0.52904029  0.19416639     0.18700
H931        H  0.27473547  0.61406511  0.29617740     0.18700
N932        N  0.27927187  0.62161649  0.19264100    -0.88000
H933        H  0.20133481  0.52981549  0.32103564     0.36100
H934        H  0.23585559  0.51093440  0.32250893     0.41200
H935        H  0.26312076  0.63222413  0.16750378     0.40800
H936        H  0.29747261  0.61312532  0.16957628     0.35700
C937        C  0.44457015  0.72800118  0.77693825    -0.26000
C938        C  0.42241860  0.74607123  0.80326027    -0.14100
C939        C  0.40182274  0.76454359  0.77310589     0.36500
C940        C  0.40372874  0.76435447  0.71764641    -0.25500
C941        C  0.42567482  0.74596841  0.69129090    -0.14700
C942        C  0.44650115  0.72774365  0.72126468     0.37600
N943        N  0.47014251  0.70984281  0.69533778    -0.89000
H944        H  0.46039432  0.71400368  0.80013877     0.18700
H945        H  0.38763905  0.77830603  0.69480394     0.18700
N946        N  0.37814613  0.78287985  0.79757980    -0.88000
H947        H  0.45931546  0.69193140  0.67418163     0.36100
H948        H  0.48405137  0.69880694  0.72347587     0.41200
H949        H  0.38864365  0.79962746  0.82182595     0.40800
H950        H  0.36446986  0.76837072  0.82123369     0.35700
C951        C  0.43984662  0.76765648  0.21876161    -0.26000
C952        C  0.42450883  0.74361209  0.19114201    -0.14100
C953        C  0.40822495  0.72094000  0.22038078     0.36500
C954        C  0.40811667  0.72226018  0.27613281    -0.25500
C955        C  0.42336486  0.74635320  0.30377079    -0.14700
C956        C  0.43878583  0.76966256  0.27437758     0.37600
N957        N  0.45297094  0.79570891  0.30063663    -0.89000
H958        H  0.45222941  0.78542697  0.19686355     0.18700
H959        H  0.39558505  0.70459034  0.29802494     0.18700
N960        N  0.39101549  0.69702189  0.19353790    -0.88000
H961        H  0.44180764  0.81573655  0.28735563     0.36100
H962        H  0.47611097  0.79742983  0.28865520     0.41200
H963        H  0.36774440  0.69862339  0.20504838     0.40800
H964        H  0.39946493  0.67559858  0.20629966     0.35700
C965        C  0.24452005  0.88462186  0.77478769    -0.26000
C966        C  0.25011823  0.91215997  0.80313945    -0.14100
C967        C  0.25492414  0.94008440  0.77503417     0.36500
C968        C  0.25380482  0.94004885  0.71941247    -0.25500
C969        C  0.24796656  0.91254747  0.69108415    -0.14700
C970        C  0.24352845  0.88453993  0.71917645     0.37600
N971        N  0.23803691  0.85575770  0.69206184    -0.89000
H972        H  0.24084945  0.86310683  0.79607925     0.18700
H973        H  0.25754619  0.96155658  0.69812232     0.18700
N974        N  0.26097525  0.96871689  0.80218811    -0.88000
H975        H  0.21822457  0.85814901  0.66829232     0.36100
H976        H  0.25697145  0.85127323  0.66737124     0.41200
H977        H  0.24223259  0.97354797  0.82706480     0.40800
H978        H  0.28083029  0.96593209  0.82576048     0.35700
C979        C  0.22489843  0.92055919  0.21639809    -0.26000
C980        C  0.24611788  0.90118045  0.19056828    -0.14100
C981        C  0.26644909  0.88286981  0.22115299     0.36500
C982        C  0.26614176  0.88522761  0.27682141    -0.25500
C983        C  0.24536043  0.90519476  0.30266100    -0.14700
C984        C  0.22425753  0.92259885  0.27196258     0.37600
N985        N  0.20223036  0.94254207  0.29705974    -0.89000
H986        H  0.20911978  0.93466547  0.19321068     0.18700
H987        H  0.28201703  0.87124624  0.30002583     0.18700
N988        N  0.28722358  0.86172401  0.19571602    -0.88000
H989        H  0.17996711  0.93473902  0.28668543     0.36100
H990        H  0.20492301  0.96466664  0.28097282     0.41200
H991        H  0.28241925  0.83942778  0.20988623     0.40800
H992        H  0.30992442  0.86758253  0.20703775     0.35700
N993        N  0.71616564  0.41225764  0.05637439    -0.36300
N994        N  0.78398333  0.41028967  0.05919414    -0.56900
N995        N  0.78428005  0.41034565  0.94493539    -0.36300
N996        N  0.71669377  0.40912546  0.94213999    -0.56900
C997        C  0.72226295  0.40204278  0.10605723     0.27300
C998        C  0.68672472  0.40342137  0.04419183     0.27300
C999        C  0.81410238  0.40313460  0.95667308     0.27300
C1000       C  0.77828750  0.39994578  0.89513881     0.27300
C1001       C  0.77726315  0.41766557  0.11001772     0.35900
C1002       C  0.81354021  0.41982057  0.05051129     0.35900
C1003       C  0.68741902  0.41911102  0.95054814     0.35900
C1004       C  0.72346634  0.41572386  0.89117011     0.35900
C1005       C  0.69674376  0.38609622  0.12548745    -0.21600
C1006       C  0.67439624  0.38671142  0.08632421    -0.21600
C1007       C  0.82690372  0.38716908  0.91401790    -0.21600
C1008       C  0.80435787  0.38548350  0.87502024    -0.21600
C1009       C  0.80242529  0.43218901  0.13393807    -0.22700
C1010       C  0.82531277  0.43397316  0.09608591    -0.22700
C1011       C  0.67593896  0.43300645  0.90480563    -0.22700
C1012       C  0.69867773  0.43035450  0.86690166    -0.22700
C1013       C  0.74935048  0.40921645  0.13549451    -0.18000
C1014       C  0.67061891  0.41219893  0.99731207    -0.18000
C1015       C  0.75104261  0.40657926  0.86594569    -0.18000
C1016       C  0.83015093  0.41315143  0.00324855    -0.18000
H1017       H  0.69442986  0.37524424  0.16397499     0.14900
H1018       H  0.65182203  0.37576363  0.08896760     0.14900
H1019       H  0.85004507  0.37768282  0.91080068     0.14900
H1020       H  0.80700638  0.37530637  0.83598264     0.14900
H1021       H  0.80404821  0.44068851  0.17432820     0.13200
H1022       H  0.84781005  0.44473544  0.10207272     0.13200
H1023       H  0.65366980  0.44395393  0.89872728     0.13200
H1024       H  0.69720979  0.43835556  0.82627876     0.13200
H1025       H  0.72994253  0.42752798  0.03454513     0.26400
H1026       H  0.77023344  0.42515045  0.96687366     0.26400
N1027       N  0.77993698  0.40847594  0.44300780    -0.36300
N1028       N  0.78133547  0.41071662  0.55733320    -0.56900
N1029       N  0.71360804  0.40739829  0.55902340    -0.36300
N1030       N  0.71219116  0.40817145  0.44468992    -0.56900
C1031       C  0.80900184  0.41926547  0.45291113     0.27300
C1032       C  0.77224342  0.41709362  0.39316665     0.27300
C1033       C  0.72077901  0.41628158  0.60913000     0.27300
C1034       C  0.68392404  0.41607450  0.54918802     0.27300
C1035       C  0.81113032  0.40323578  0.54648327     0.35900
C1036       C  0.77605069  0.40198316  0.60797928     0.35900
C1037       C  0.71802819  0.39895910  0.39442283     0.35900
C1038       C  0.68276636  0.39915109  0.45567721     0.35900
C1039       C  0.81953352  0.43572092  0.40910627    -0.21600
C1040       C  0.79637436  0.43407966  0.37118218    -0.21600
C1041       C  0.69563588  0.43114836  0.63163204    -0.21600
C1042       C  0.67248539  0.43148838  0.59356676    -0.21600
C1043       C  0.82448132  0.38891864  0.59034658    -0.22700
C1044       C  0.80234175  0.38858500  0.62952683    -0.22700
C1045       C  0.69253017  0.38343887  0.37347820    -0.22700
C1046       C  0.67019093  0.38338124  0.41240153    -0.22700
C1047       C  0.82649905  0.41203241  0.49900897    -0.18000
C1048       C  0.74499797  0.40748868  0.36622743    -0.18000
C1049       C  0.66687589  0.40779645  0.50262888    -0.18000
C1050       C  0.74854319  0.40853493  0.63584341    -0.18000
H1051       H  0.84150986  0.44771416  0.40452798     0.14900
H1052       H  0.79724266  0.44408319  0.33184785     0.14900
H1053       H  0.69411475  0.44061592  0.67137230     0.14900
H1054       H  0.64992917  0.44197662  0.59867428     0.14900
H1055       H  0.84758906  0.37943385  0.59422314     0.13200
H1056       H  0.80522803  0.37953779  0.66927305     0.13200
H1057       H  0.69015827  0.37361080  0.33408016     0.13200
H1058       H  0.64742400  0.37281738  0.40886307     0.13200
H1059       H  0.76750908  0.39279648  0.46638250     0.26400
H1060       H  0.72698985  0.39279584  0.53542032     0.26400
N1061       N  0.92482872  0.20933510  0.05351948    -0.36300
N1062       N  0.92463318  0.20985471  0.93971806    -0.56900
N1063       N  0.92274632  0.27758365  0.94156221    -0.36300
N1064       N  0.92571283  0.27708547  0.05573282    -0.56900
C1065       C  0.93505727  0.18049843  0.04156317     0.27300
C1066       C  0.93482459  0.21620774  0.10316781     0.27300
C1067       C  0.93159508  0.27118493  0.89135939     0.27300
C1068       C  0.93237264  0.30679530  0.95288097     0.27300
C1069       C  0.91734429  0.17973416  0.94859923     0.35900
C1070       C  0.91572334  0.21627014  0.88947406     0.35900
C1071       C  0.91749739  0.27036555  0.10612260     0.35900
C1072       C  0.91683908  0.30664533  0.04665813     0.35900
C1073       C  0.95268955  0.16942937  0.08374862    -0.21600
C1074       C  0.95228231  0.19189557  0.12279567    -0.21600
C1075       C  0.94759860  0.29629621  0.87054858    -0.21600
C1076       C  0.94836396  0.31874780  0.90959821    -0.21600
C1077       C  0.90292219  0.16725954  0.90383740    -0.22700
C1078       C  0.90223672  0.19035920  0.86624407    -0.22700
C1079       C  0.90282995  0.29550769  0.12912231    -0.22700
C1080       C  0.90220493  0.31847780  0.09134553    -0.22700
C1081       C  0.92633603  0.16356268  0.99526509    -0.18000
C1082       C  0.92580925  0.24269888  0.13230066    -0.18000
C1083       C  0.92441747  0.32313188  0.99976533    -0.18000
C1084       C  0.92298542  0.24419101  0.86309001    -0.18000
H1085       H  0.96468806  0.14751631  0.08651522     0.14900
H1086       H  0.96328736  0.19040892  0.16141847     0.14900
H1087       H  0.95738485  0.29831593  0.83118391     0.14900
H1088       H  0.95945504  0.34122575  0.90608712     0.14900
H1089       H  0.89377564  0.14410530  0.89812990     0.13200
H1090       H  0.89319706  0.18825618  0.82621980     0.13200
H1091       H  0.89366243  0.29717382  0.16896638     0.13200
H1092       H  0.89187849  0.34108090  0.09656581     0.13200
H1093       H  0.90856255  0.22207029  0.03185859     0.26400
H1094       H  0.90760434  0.26412507  0.96435816     0.26400
N1095       N  0.92239729  0.27456806  0.55514856    -0.36300
N1096       N  0.92597663  0.20693060  0.55566162    -0.56900
N1097       N  0.92293176  0.20667357  0.44138958    -0.36300
N1098       N  0.92205129  0.27436557  0.44137361    -0.56900
C1099       C  0.93306707  0.26832866  0.60444002     0.27300
C1100       C  0.93058348  0.30413583  0.54376371     0.27300
C1101       C  0.93337117  0.17781055  0.45250808     0.27300
C1102       C  0.93229611  0.21385749  0.39164514     0.27300
C1103       C  0.91790424  0.21335076  0.60628531     0.35900
C1104       C  0.91770076  0.17707784  0.54631794     0.35900
C1105       C  0.91226697  0.30353802  0.45132746     0.35900
C1106       C  0.91346215  0.26757029  0.39107109     0.35900
C1107       C  0.94877891  0.29391791  0.62457933    -0.21600
C1108       C  0.94755896  0.31648883  0.58596285    -0.21600
C1109       C  0.95031622  0.16688166  0.40955963    -0.21600
C1110       C  0.94942595  0.18956619  0.37104281    -0.21600
C1111       C  0.90390972  0.18777916  0.62926526    -0.22700
C1112       C  0.90354460  0.16482151  0.59122726    -0.22700
C1113       C  0.89646806  0.31496446  0.40739642    -0.22700
C1114       C  0.89739184  0.29216098  0.36909964    -0.22700
C1115       C  0.92597689  0.24110724  0.63282782    -0.18000
C1116       C  0.92059772  0.32026392  0.49784830    -0.18000
C1117       C  0.92344579  0.24087540  0.36367133    -0.18000
C1118       C  0.92555779  0.16087950  0.49902506    -0.18000
H1119       H  0.95973121  0.29613197  0.66317847     0.14900
H1120       H  0.95800311  0.33930662  0.58906096     0.14900
H1121       H  0.96232340  0.14500739  0.40605077     0.14900
H1122       H  0.96004530  0.18825366  0.33224186     0.14900
H1123       H  0.89530369  0.18577869  0.66943859     0.13200
H1124       H  0.89375794  0.14194421  0.59672256     0.13200
H1125       H  0.88552065  0.33732157  0.40286705     0.13200
H1126       H  0.88793069  0.29371270  0.32931811     0.13200
H1127       H  0.90695822  0.26072706  0.53338499     0.26400
H1128       H  0.90716077  0.21930139  0.46405606     0.26400
N1129       N  0.71795612  0.06426821  0.05227063    -0.36300
N1130       N  0.78552676  0.06823326  0.05411213    -0.56900
N1131       N  0.78592672  0.06745236  0.93966524    -0.36300
N1132       N  0.71827871  0.06656079  0.93764067    -0.56900
C1133       C  0.72406890  0.07390404  0.10248513     0.27300
C1134       C  0.68830246  0.07235204  0.04081181     0.27300
C1135       C  0.81496851  0.07751601  0.95180800     0.27300
C1136       C  0.77930012  0.07755353  0.89014521     0.27300
C1137       C  0.77940907  0.06025189  0.10479435     0.35900
C1138       C  0.81541266  0.06048233  0.04497204     0.35900
C1139       C  0.68858636  0.05735238  0.94608771     0.35900
C1140       C  0.72476259  0.06010595  0.88633163     0.35900
C1141       C  0.69829285  0.08850890  0.12324209    -0.21600
C1142       C  0.67585538  0.08797403  0.08417320    -0.21600
C1143       C  0.82653671  0.09491083  0.90987513    -0.21600
C1144       C  0.80405656  0.09474171  0.87081607    -0.21600
C1145       C  0.80521908  0.04694574  0.12810989    -0.22700
C1146       C  0.82796859  0.04661750  0.08997108    -0.22700
C1147       C  0.67647902  0.04419372  0.89992838    -0.22700
C1148       C  0.69931348  0.04629132  0.86197495    -0.22700
C1149       C  0.75161224  0.06764925  0.13098117    -0.18000
C1150       C  0.67206671  0.06390155  0.99350575    -0.18000
C1151       C  0.75254759  0.06910710  0.86076406    -0.18000
C1152       C  0.83158197  0.06906233  0.99824880    -0.18000
H1153       H  0.69595902  0.09860427  0.16240378     0.14900
H1154       H  0.65316432  0.09840847  0.08772059     0.14900
H1155       H  0.84876119  0.10663678  0.90734052     0.14900
H1156       H  0.80583933  0.10571730  0.83234720     0.14900
H1157       H  0.80743655  0.03858314  0.16841859     0.13200
H1158       H  0.85096534  0.03715419  0.09547025     0.13200
H1159       H  0.65371773  0.03405479  0.89360606     0.13200
H1160       H  0.69736374  0.03865773  0.82112307     0.13200
H1161       H  0.73199786  0.04987882  0.02944407     0.26400
H1162       H  0.77292367  0.05139343  0.96123616     0.26400
N1163       N  0.78494568  0.06815073  0.55154914    -0.36300
N1164       N  0.71728970  0.06759043  0.55389378    -0.56900
N1165       N  0.71603528  0.06488476  0.44004090    -0.36300
N1166       N  0.78389587  0.06810709  0.43769430    -0.56900
C1167       C  0.77861209  0.07860467  0.60094464     0.27300
C1168       C  0.81403951  0.07772267  0.53941695     0.27300
C1169       C  0.68645797  0.07302260  0.45167196     0.27300
C1170       C  0.72193036  0.07439239  0.38994370     0.27300
C1171       C  0.72474251  0.05981854  0.60417572     0.35900
C1172       C  0.68798439  0.05726908  0.54529839     0.35900
C1173       C  0.81376050  0.05995055  0.44662947     0.35900
C1174       C  0.77711613  0.05972635  0.38729500     0.35900
C1175       C  0.80365069  0.09556765  0.62029490    -0.21600
C1176       C  0.82598053  0.09526577  0.58121741    -0.21600
C1177       C  0.67369547  0.08852899  0.40850348    -0.21600
C1178       C  0.69604688  0.08913171  0.36941506    -0.21600
C1179       C  0.70044007  0.04378372  0.62755114    -0.22700
C1180       C  0.67709154  0.04202241  0.59007606    -0.22700
C1181       C  0.82567806  0.04549240  0.40174378    -0.22700
C1182       C  0.80252988  0.04580543  0.36391425    -0.22700
C1183       C  0.75190660  0.07034119  0.63008791    -0.18000
C1184       C  0.83035152  0.06835292  0.49337148    -0.18000
C1185       C  0.74912349  0.06724201  0.36131160    -0.18000
C1186       C  0.67072746  0.06449885  0.49904481    -0.18000
H1187       H  0.80573403  0.10664828  0.65875942     0.14900
H1188       H  0.84840031  0.10664827  0.58371329     0.14900
H1189       H  0.65078192  0.09853030  0.40505492     0.14900
H1190       H  0.69342972  0.09890607  0.33012812     0.14900
H1191       H  0.69946665  0.03489330  0.66765512     0.13200
H1192       H  0.65475185  0.03086764  0.59557058     0.13200
H1193       H  0.84846285  0.03559772  0.39616644     0.13200
H1194       H  0.80417794  0.03685533  0.32383904     0.13200
H1195       H  0.77174925  0.05201704  0.53020718     0.26400
H1196       H  0.73012128  0.05035488  0.46253350     0.26400
N1197       N  0.57627724  0.20449773  0.93763093    -0.36300
N1198       N  0.57836551  0.20463228  0.05179712    -0.56900
N1199       N  0.57641945  0.27222843  0.05139870    -0.36300
N1200       N  0.57711323  0.27241460  0.93703746    -0.56900
C1201       C  0.58601002  0.17534130  0.94842780     0.27300
C1202       C  0.58515494  0.21128179  0.88752215     0.27300
C1203       C  0.58604240  0.26567273  0.10133681     0.27300
C1204       C  0.58528709  0.30173800  0.04063093     0.27300
C1205       C  0.57056345  0.17470024  0.04250302     0.35900
C1206       C  0.57071447  0.21062849  0.10270298     0.35900
C1207       C  0.56901586  0.26604370  0.88619238     0.35900
C1208       C  0.56880648  0.30216624  0.94666102     0.35900
C1209       C  0.60198403  0.16383100  0.90481769    -0.21600
C1210       C  0.60122134  0.18647128  0.86626251    -0.21600
C1211       C  0.60167646  0.29097255  0.12250111    -0.21600
C1212       C  0.60163479  0.31358876  0.08395587    -0.21600
C1213       C  0.55712800  0.16195863  0.08764634    -0.22700
C1214       C  0.55778338  0.18460874  0.12603143    -0.22700
C1215       C  0.55522745  0.29164306  0.86324205    -0.22700
C1216       C  0.55471759  0.31440391  0.90158565    -0.22700
C1217       C  0.57850937  0.15865379  0.99532829    -0.18000
C1218       C  0.57630911  0.23817339  0.85946475    -0.18000
C1219       C  0.57644301  0.31843171  0.99436741    -0.18000
C1220       C  0.57829749  0.23840086  0.12926799    -0.18000
H1221       H  0.61311580  0.14152613  0.90078352     0.14900
H1222       H  0.61096779  0.18474145  0.82682590     0.14900
H1223       H  0.61190656  0.29298971  0.16168234     0.14900
H1224       H  0.61247090  0.33612216  0.08797240     0.14900
H1225       H  0.54769836  0.13890012  0.09307139     0.13200
H1226       H  0.54980746  0.18213865  0.16649830     0.13200
H1227       H  0.54643425  0.29370059  0.82308697     0.13200
H1228       H  0.54468901  0.33709964  0.89622289     0.13200
H1229       H  0.56105405  0.21760580  0.96059217     0.26400
H1230       H  0.56119425  0.25867934  0.02864530     0.26400
N1231       N  0.56741534  0.27183304  0.43674504    -0.36300
N1232       N  0.57296748  0.20395844  0.43717074    -0.56900
N1233       N  0.57049076  0.20444821  0.55128846    -0.36300
N1234       N  0.56748705  0.27187925  0.55088670    -0.56900
C1235       C  0.57763546  0.26540374  0.38717490     0.27300
C1236       C  0.57521945  0.30171867  0.44789225     0.27300
C1237       C  0.58196193  0.17593555  0.54080689     0.27300
C1238       C  0.57935310  0.21207213  0.60123539     0.27300
C1239       C  0.56552826  0.20935992  0.38588181     0.35900
C1240       C  0.56667600  0.17367463  0.44653629     0.35900
C1241       C  0.55795338  0.30111875  0.54110964     0.35900
C1242       C  0.55944494  0.26535091  0.60140622     0.35900
C1243       C  0.59205002  0.29134662  0.36620698    -0.21600
C1244       C  0.59102703  0.31408203  0.40467155    -0.21600
C1245       C  0.59896413  0.16574537  0.58439117    -0.21600
C1246       C  0.59697440  0.18843816  0.62272870    -0.21600
C1247       C  0.55410042  0.18258345  0.36234221    -0.22700
C1248       C  0.55427831  0.16006614  0.40094633    -0.22700
C1249       C  0.54266158  0.31276961  0.58533127    -0.22700
C1250       C  0.54390072  0.29013375  0.62373531    -0.22700
C1251       C  0.57206862  0.23739166  0.35936985    -0.18000
C1252       C  0.56670605  0.31791955  0.49512154    -0.18000
C1253       C  0.56981451  0.23887696  0.62874913    -0.18000
C1254       C  0.57498166  0.15840594  0.49446878    -0.18000
H1255       H  0.60244980  0.29361872  0.32735231     0.14900
H1256       H  0.60127403  0.33686500  0.40063881     0.14900
H1257       H  0.61170302  0.14432758  0.58850166     0.14900
H1258       H  0.60728150  0.18762881  0.66196559     0.14900
H1259       H  0.54654889  0.17956521  0.32160540     0.13200
H1260       H  0.54609886  0.13654382  0.39528015     0.13200
H1261       H  0.53199802  0.33525684  0.59005915     0.13200
H1262       H  0.53511636  0.29194702  0.66382134     0.13200
H1263       H  0.55301616  0.25753239  0.45932461     0.26400
H1264       H  0.55439349  0.21644455  0.52811842     0.26400
O1265       O  0.92371151  0.46152615  0.04479743    -0.74100
O1266       O  0.92669046  0.37262957  0.04375981    -0.74200
O1267       O  0.96965852  0.41811688  0.04209298    -0.74200
O1268       O  0.88056598  0.41479615  0.04584436    -0.74300
O1269       O  0.87899629  0.41793716  0.95793811    -0.74200
O1270       O  0.96801504  0.41615023  0.95363459    -0.74200
O1271       O  0.92221458  0.37268323  0.95587931    -0.74200
O1272       O  0.92425406  0.46168881  0.95628787    -0.74200
Ni1273     Ni  0.92519440  0.41692000  0.04729440     1.25400
Ni1274     Ni  0.92336444  0.41719488  0.95278078     1.25400
C1275       C  0.92372618  0.47626826  0.00067385     0.88000
C1276       C  0.92444865  0.35784022  0.99977746     0.88000
C1277       C  0.98346687  0.41634566  0.99721020     0.88000
C1278       C  0.86492513  0.41553785  0.00243993     0.88200
O1279       O  0.92218312  0.45886057  0.54208572    -0.74100
O1280       O  0.91875071  0.36987514  0.54207803    -0.74200
O1281       O  0.96495867  0.41296393  0.54344882    -0.74200
O1282       O  0.87624896  0.41587686  0.54180551    -0.74300
O1283       O  0.87603273  0.41286313  0.45380408    -0.74200
O1284       O  0.96539588  0.41460391  0.45493916    -0.74200
O1285       O  0.92151500  0.36969064  0.45402212    -0.74200
O1286       O  0.92045103  0.45859366  0.45358475    -0.74200
Ni1287     Ni  0.92052132  0.41442444  0.54546673     1.25400
Ni1288     Ni  0.92079530  0.41402834  0.45087744     1.25400
C1289       C  0.92176035  0.47336364  0.49774220     0.88000
C1290       C  0.92015011  0.35496672  0.49800681     0.88000
C1291       C  0.97979794  0.41337408  0.49955214     0.88000
C1292       C  0.86128095  0.41382517  0.49796896     0.88200
O1293       O  0.97008454  0.06836389  0.04368600    -0.74100
O1294       O  0.88120112  0.07124395  0.04214096    -0.74200
O1295       O  0.92404050  0.02526827  0.04442069    -0.74200
O1296       O  0.92656414  0.11439904  0.04092772    -0.74300
O1297       O  0.92686013  0.11308706  0.95285439    -0.74200
O1298       O  0.92463118  0.02410787  0.95589999    -0.74200
O1299       O  0.88113994  0.06883854  0.95408324    -0.74200
O1300       O  0.97013905  0.06732999  0.95513961    -0.74200
Ni1301     Ni  0.92552479  0.06991204  0.04593329     1.25400
Ni1302     Ni  0.92570499  0.06842346  0.95135528     1.25400
C1303       C  0.98468826  0.06673425  0.99958158     0.88000
C1304       C  0.86633541  0.06986820  0.99810638     0.88000
C1305       C  0.92394999  0.01006200  0.00058914     0.88000
C1306       C  0.92669870  0.12865118  0.99629813     0.88200
O1307       O  0.92321624  0.02215595  0.45133007    -0.74100
O1308       O  0.92567756  0.11143337  0.45344649    -0.74200
O1309       O  0.96903767  0.06541031  0.45325031    -0.74200
O1310       O  0.88026186  0.06826540  0.45083607    -0.74300
O1311       O  0.87961078  0.06701262  0.53894594    -0.74200
O1312       O  0.96856571  0.06483135  0.54181845    -0.74200
O1313       O  0.92569633  0.11069998  0.54151157    -0.74200
O1314       O  0.92286565  0.02191348  0.53987430    -0.74200
Ni1315     Ni  0.92462503  0.06684831  0.44905691     1.25400
Ni1316     Ni  0.92413718  0.06618410  0.54366070     1.25400
C1317       C  0.92273966  0.00740885  0.49549502     0.88000
C1318       C  0.92576351  0.12597541  0.49795220     0.88000
C1319       C  0.98334646  0.06415516  0.49783308     0.88000
C1320       C  0.86510495  0.06788651  0.49439827     0.88200
O1321       O  0.53251669  0.06475435  0.95379869    -0.74100
O1322       O  0.62171429  0.06515160  0.95026887    -0.74200
O1323       O  0.57697772  0.02016096  0.95233017    -0.74200
O1324       O  0.57676811  0.10905595  0.95128976    -0.74300
O1325       O  0.58157708  0.10909694  0.03906783    -0.74200
O1326       O  0.57585634  0.02040738  0.04085661    -0.74200
O1327       O  0.62283192  0.06183342  0.03812015    -0.74200
O1328       O  0.53408718  0.06745202  0.04221791    -0.74200
Ni1329     Ni  0.57698374  0.06466077  0.94871960     1.25400
Ni1330     Ni  0.57861871  0.06472990  0.04321724     1.25400
C1331       C  0.51868606  0.06689033  0.99860353     0.88000
C1332       C  0.63717288  0.06344176  0.99378261     0.88000
C1333       C  0.57618738  0.00568131  0.99667897     0.88000
C1334       C  0.57915940  0.12391306  0.99518620     0.88200
O1335       O  0.57716524  0.02102549  0.54944180    -0.74100
O1336       O  0.57575169  0.11002910  0.54209778    -0.74200
O1337       O  0.53210497  0.06528879  0.54688791    -0.74200
O1338       O  0.62146880  0.06653905  0.54471886    -0.74300
O1339       O  0.62059840  0.06169830  0.45690576    -0.74200
O1340       O  0.53170622  0.06513228  0.45833527    -0.74200
O1341       O  0.57797064  0.10770599  0.45419117    -0.74200
O1342       O  0.57456411  0.01925775  0.46102597    -0.74200
Ni1343     Ni  0.57674250  0.06574043  0.54905120     1.25400
Ni1344     Ni  0.57617409  0.06331904  0.45456219     1.25400
C1345       C  0.57572054  0.00554138  0.50596802     0.88000
C1346       C  0.57644145  0.12369490  0.49695133     0.88000
C1347       C  0.51728251  0.06603712  0.50269045     0.88000
C1348       C  0.63590234  0.06414624  0.50040468     0.88200
O1349       O  0.57685274  0.45740057  0.95396338    -0.74100
O1350       O  0.57611670  0.36862018  0.95224202    -0.74200
O1351       O  0.53160143  0.41358425  0.95439131    -0.74200
O1352       O  0.62078890  0.41242410  0.95299441    -0.74300
O1353       O  0.62111244  0.41288028  0.04107650    -0.74200
O1354       O  0.53232887  0.41328384  0.04294203    -0.74200
O1355       O  0.57598118  0.36800504  0.04025588    -0.74200
O1356       O  0.57716271  0.45726714  0.04251904    -0.74200
Ni1357     Ni  0.57625676  0.41301356  0.95027459     1.25400
Ni1358     Ni  0.57670486  0.41273867  0.04485073     1.25400
C1359       C  0.57707900  0.47194276  0.99832594     0.88000
C1360       C  0.57611994  0.35338244  0.99574179     0.88000
C1361       C  0.51736477  0.41421906  0.99903132     0.88000
C1362       C  0.63581446  0.41257939  0.99700169     0.88200
O1363       O  0.52806875  0.41401877  0.54533082    -0.74100
O1364       O  0.61707029  0.40848677  0.54624058    -0.74200
O1365       O  0.57548258  0.45606585  0.54826800    -0.74200
O1366       O  0.56993755  0.36676380  0.54259840    -0.74300
O1367       O  0.56939706  0.36857113  0.45460337    -0.74200
O1368       O  0.57542376  0.45711572  0.45977034    -0.74200
O1369       O  0.61719440  0.41066909  0.45820868    -0.74200
O1370       O  0.52826931  0.41558121  0.45683010    -0.74200
Ni1371     Ni  0.57261378  0.41127529  0.54882214     1.25400
Ni1372     Ni  0.57264173  0.41298716  0.45430894     1.25400
C1373       C  0.51356901  0.41576900  0.50089965     0.88000
C1374       C  0.63201112  0.40895238  0.50238612     0.88000
C1375       C  0.57616440  0.47123826  0.50449325     0.88000
C1376       C  0.56867676  0.35278483  0.49756037     0.88200
C1377       C  0.55201598  0.21960322  0.71681477    -0.26000
C1378       C  0.57171994  0.23922178  0.68787634    -0.14100
C1379       C  0.59395966  0.25749868  0.71539643     0.36500
C1380       C  0.59535755  0.25647301  0.77099317    -0.25500
C1381       C  0.57510273  0.23736755  0.80011959    -0.14700
C1382       C  0.55326912  0.21864062  0.77238580     0.37600
N1383       N  0.53156326  0.19909364  0.79965295    -0.89000
H1384       H  0.53563502  0.20486046  0.69577260     0.18700
H1385       H  0.61237740  0.27070281  0.79171873     0.18700
N1386       N  0.61599823  0.27652139  0.68781976    -0.88000
H1387       H  0.54374727  0.18220695  0.82066742     0.36100
H1388       H  0.51916562  0.21268039  0.82659064     0.41200
H1389       H  0.62830138  0.26248696  0.66138813     0.40800
H1390       H  0.60400348  0.29322239  0.66604185     0.35700
C1391       C  0.54952974  0.24478565  0.21380542    -0.26000
C1392       C  0.57783452  0.23877868  0.18836334    -0.14100
C1393       C  0.60452434  0.23212361  0.21940709     0.36500
C1394       C  0.60216263  0.23174817  0.27502181    -0.25500
C1395       C  0.57372631  0.23748766  0.30027746    -0.14700
C1396       C  0.54723684  0.24400831  0.26918795     0.37600
N1397       N  0.51773843  0.24983569  0.29315360    -0.89000
H1398       H  0.52896235  0.24967454  0.19031745     0.18700
H1399       H  0.62261301  0.22681083  0.29874602     0.18700
N1400       N  0.63422243  0.22569110  0.19602469    -0.88000
H1401       H  0.51121401  0.23027472  0.31492945     0.36100
H1402       H  0.52048234  0.26837346  0.31962245     0.41200
H1403       H  0.63223288  0.22109598  0.15544506     0.40800
H1404       H  0.64787002  0.24570804  0.20013733     0.35700
C1405       C  0.73290783  0.08993472  0.77412344    -0.26000
C1406       C  0.75351017  0.07045731  0.80149266    -0.14100
C1407       C  0.77519205  0.05299718  0.77224289     0.36500
C1408       C  0.77436631  0.05342435  0.71656511    -0.23900
C1409       C  0.75282991  0.07178757  0.68920113    -0.14700
C1410       C  0.73274519  0.09120520  0.71853636     0.37600
N1411       N  0.71292089  0.11329401  0.69307481    -0.89000
H1412       H  0.71707709  0.10451049  0.79621698     0.18700
H1413       H  0.79049517  0.03912781  0.69453565     0.18700
N1414       N  0.79811502  0.03477944  0.79890871    -0.88000
H1415       H  0.69681389  0.10161352  0.66910449     0.36100
H1416       H  0.72664605  0.12753866  0.66904138     0.41200
H1417       H  0.79646500  0.01224078  0.78410038     0.40800
H1418       H  0.81999983  0.04335811  0.78829065     0.35700
C1419       C  0.73347615  0.04579380  0.21696504    -0.26000
C1420       C  0.75095951  0.06836875  0.19013753    -0.14100
C1421       C  0.76704106  0.09133261  0.21989880     0.36500
C1422       C  0.76586107  0.09077402  0.27547197    -0.25500
C1423       C  0.74856661  0.06800007  0.30221312    -0.14700
C1424       C  0.73209925  0.04545215  0.27245209     0.37600
N1425       N  0.71451486  0.02145769  0.29772581    -0.89000
H1426       H  0.72098224  0.02817690  0.19453717     0.18700
H1427       H  0.77849427  0.10823232  0.29802935     0.18700
N1428       N  0.78407280  0.11584577  0.19476086    -0.88000
H1429       H  0.69668468  0.03151929  0.31973379     0.36100
H1430       H  0.72923834  0.00954399  0.32365863     0.41200
H1431       H  0.76897283  0.12760128  0.16922246     0.40800
H1432       H  0.80193944  0.10625140  0.17228584     0.35700
C1433       C  0.94633792  0.22659311  0.77805177    -0.26000
C1434       C  0.92382679  0.24440158  0.80399384    -0.14100
C1435       C  0.90226837  0.26147050  0.77347233     0.36500
C1436       C  0.90365842  0.26031269  0.71796296    -0.25500
C1437       C  0.92596849  0.24216920  0.69196404    -0.14700
C1438       C  0.94765539  0.22522752  0.72232837     0.37600
N1439       N  0.97137999  0.20733744  0.69667437    -0.89000
H1440       H  0.96282372  0.21356543  0.80158829     0.18700
H1441       H  0.88689720  0.27328761  0.69483509     0.18700
N1442       N  0.87817734  0.27932562  0.79776971    -0.88000
H1443       H  0.96063123  0.18925628  0.67588387     0.36100
H1444       H  0.98528292  0.19653127  0.72515094     0.41200
H1445       H  0.88838704  0.29658845  0.82134124     0.40800
H1446       H  0.86515361  0.26465925  0.82219613     0.35700
C1447       C  0.94226943  0.26409770  0.22091278    -0.26000
C1448       C  0.92568897  0.24161026  0.19168996    -0.14100
C1449       C  0.90852646  0.21883071  0.21926971     0.36500
C1450       C  0.90858458  0.21861439  0.27505042    -0.25500
C1451       C  0.92491346  0.24127015  0.30429285    -0.14700
C1452       C  0.94166876  0.26440490  0.27665823     0.37600
N1453       N  0.95778001  0.28851687  0.30502260    -0.89000
H1454       H  0.95551592  0.28176736  0.20027140     0.18700
H1455       H  0.89518430  0.20105662  0.29568517     0.18700
N1456       N  0.89029368  0.19638284  0.19070317    -0.88000
H1457       H  0.94824328  0.30972792  0.29355967     0.36100
H1458       H  0.98103260  0.28864558  0.29322611     0.41200
H1459       H  0.86714448  0.19858126  0.20260846     0.40800
H1460       H  0.89790484  0.17429811  0.20158334     0.35700
C1461       C  0.73727673  0.38200792  0.77868055    -0.26000
C1462       C  0.75186989  0.40617185  0.80688497    -0.14100
C1463       C  0.76529772  0.43104016  0.77875035     0.36500
C1464       C  0.76373450  0.43164665  0.72322138    -0.25500
C1465       C  0.74903484  0.40758623  0.69491878    -0.14700
C1466       C  0.73592752  0.38240002  0.72304170     0.37600
N1467       N  0.72149762  0.35682793  0.69592454    -0.89000
H1468       H  0.72681244  0.36285558  0.80005827     0.18700
H1469       H  0.77397730  0.45098679  0.70200235     0.18700
N1470       N  0.78012434  0.45620969  0.80609155    -0.88000
H1471       H  0.70291210  0.36523158  0.67341432     0.36100
H1472       H  0.73776479  0.34716632  0.67006139     0.41200
H1473       H  0.76412930  0.46574483  0.83262183     0.40800
H1474       H  0.79886265  0.44756491  0.82789868     0.35700
C1475       C  0.72577906  0.42567762  0.22177479    -0.26000
C1476       C  0.74808734  0.40802523  0.19474988    -0.14100
C1477       C  0.76826609  0.38894180  0.22423937     0.36500
C1478       C  0.76681751  0.38892957  0.27993846    -0.25500
C1479       C  0.74488394  0.40703322  0.30696410    -0.14700
C1480       C  0.72376931  0.42501503  0.27737312     0.37600
N1481       N  0.70032663  0.44272416  0.30366830    -0.89000
H1482       H  0.70982560  0.44009100  0.19952498     0.18700
H1483       H  0.78276770  0.37454824  0.30225855     0.18700
N1484       N  0.78982223  0.36909747  0.19765717    -0.88000
H1485       H  0.67864947  0.43487856  0.29014888     0.36100
H1486       H  0.70273163  0.46582834  0.29207990     0.41200
H1487       H  0.78504450  0.34622934  0.20890195     0.40800
H1488       H  0.81221206  0.37475567  0.21093816     0.35700
N1489       N  0.71472767  0.90990409  0.05486120    -0.36300
N1490       N  0.78251956  0.90883500  0.05742672    -0.56900
N1491       N  0.78264677  0.91339541  0.94349690    -0.36300
N1492       N  0.71506462  0.91152675  0.94103783    -0.56900
C1493       C  0.72105063  0.89842434  0.10363272     0.27300
C1494       C  0.68520915  0.90148795  0.04236929     0.27300
C1495       C  0.81223835  0.90517543  0.95483243     0.27300
C1496       C  0.77635314  0.90381543  0.89340258     0.27300
C1497       C  0.77563566  0.91521357  0.10850666     0.35900
C1498       C  0.81162777  0.91970427  0.04914859     0.35900
C1499       C  0.68554654  0.92046661  0.95040122     0.35900
C1500       C  0.72171194  0.91995624  0.89080272     0.35900
C1501       C  0.69558582  0.88199522  0.12213740    -0.21600
C1502       C  0.67301440  0.88370757  0.08331972    -0.21600
C1503       C  0.82458374  0.88933426  0.91170323    -0.21600
C1504       C  0.80190778  0.88862641  0.87282778    -0.21600
C1505       C  0.80019454  0.93052257  0.13289954    -0.22700
C1506       C  0.82293360  0.93371432  0.09513246    -0.22700
C1507       C  0.67375002  0.93560846  0.90606434    -0.22700
C1508       C  0.69659122  0.93481644  0.86799076    -0.22700
C1509       C  0.74802696  0.90552640  0.13351482    -0.18000
C1510       C  0.66891771  0.91166370  0.99649942    -0.18000
C1511       C  0.74932596  0.91173961  0.86464958    -0.18000
C1512       C  0.82836017  0.91412023  0.00181209    -0.18000
H1513       H  0.69338368  0.87035284  0.15996207     0.14900
H1514       H  0.65030541  0.87297230  0.08543982     0.14900
H1515       H  0.84745482  0.87925746  0.90818419     0.14900
H1516       H  0.80418255  0.87873579  0.83350421     0.14900
H1517       H  0.80150335  0.93869064  0.17351250     0.13200
H1518       H  0.84498292  0.94534531  0.10134029     0.13200
H1519       H  0.65116516  0.94609217  0.90101082     0.13200
H1520       H  0.69491719  0.94401562  0.82814660     0.13200
H1521       H  0.72834177  0.92589626  0.03431695     0.26400
H1522       H  0.76898323  0.92823843  0.96613947     0.26400
N1523       N  0.77942558  0.91173543  0.44134789    -0.36300
N1524       N  0.78088044  0.91470724  0.55591283    -0.56900
N1525       N  0.71332785  0.91131577  0.55724040    -0.36300
N1526       N  0.71170196  0.91157164  0.44274469    -0.56900
C1527       C  0.80885345  0.92164830  0.45091178     0.27300
C1528       C  0.77206653  0.91961514  0.39095318     0.27300
C1529       C  0.72046822  0.92106291  0.60684661     0.27300
C1530       C  0.68372394  0.91993100  0.54702650     0.27300
C1531       C  0.81046568  0.90646659  0.54515276     0.35900
C1532       C  0.77540131  0.90621079  0.60664465     0.35900
C1533       C  0.71753225  0.90209888  0.39260849     0.35900
C1534       C  0.68242266  0.90219213  0.45412551     0.35900
C1535       C  0.82001029  0.93685197  0.40621152    -0.21600
C1536       C  0.79683321  0.93531991  0.36822537    -0.21600
C1537       C  0.69547764  0.93667155  0.62839105    -0.21600
C1538       C  0.67231826  0.93630421  0.59037038    -0.21600
C1539       C  0.82345471  0.89197576  0.58918627    -0.22700
C1540       C  0.80134219  0.89228457  0.62835004    -0.22700
C1541       C  0.69213013  0.88617890  0.37214470    -0.22700
C1542       C  0.66989457  0.88608647  0.41118043    -0.22700
C1543       C  0.82606318  0.91451736  0.49751959    -0.18000
C1544       C  0.74461455  0.91015743  0.36421922    -0.18000
C1545       C  0.66664427  0.91059582  0.50130993    -0.18000
C1546       C  0.74788736  0.91310422  0.63421480    -0.18000
H1547       H  0.84244607  0.94785576  0.40098845     0.14900
H1548       H  0.79817160  0.94441607  0.32828450     0.14900
H1549       H  0.69398783  0.94684484  0.66762190     0.14900
H1550       H  0.64972682  0.94685543  0.59474284     0.14900
H1551       H  0.84626005  0.88180805  0.59313022     0.13200
H1552       H  0.80396050  0.88315761  0.66809183     0.13200
H1553       H  0.68980251  0.87591074  0.33306851     0.13200
H1554       H  0.64729864  0.87510931  0.40798704     0.13200
H1555       H  0.76650342  0.89688356  0.46544779     0.26400
H1556       H  0.72653008  0.89607697  0.53447685     0.26400
N1557       N  0.92292496  0.70965485  0.05735754    -0.36300
N1558       N  0.92251939  0.71010966  0.94314098    -0.56900
N1559       N  0.91894890  0.77748125  0.94429737    -0.36300
N1560       N  0.92221708  0.77714141  0.05891523    -0.56900
C1561       C  0.93397140  0.68110102  0.04544056     0.27300
C1562       C  0.93239367  0.71676144  0.10723762     0.27300
C1563       C  0.92796023  0.77100064  0.89420043     0.27300
C1564       C  0.92894516  0.80653686  0.95569211     0.27300
C1565       C  0.91598308  0.67989843  0.95250401     0.35900
C1566       C  0.91289689  0.71611793  0.89309615     0.35900
C1567       C  0.91407561  0.77064384  0.10944462     0.35900
C1568       C  0.91339720  0.80668099  0.04948493     0.35900
C1569       C  0.95158836  0.67043519  0.08796476    -0.21600
C1570       C  0.95036122  0.69286887  0.12709874    -0.21600
C1571       C  0.94440165  0.79584502  0.87356077    -0.21600
C1572       C  0.94529566  0.81825700  0.91259381    -0.21600
C1573       C  0.90128426  0.66701939  0.90832532    -0.22700
C1574       C  0.89966062  0.68991316  0.87056243    -0.22700
C1575       C  0.89938429  0.79591705  0.13206761    -0.22700
C1576       C  0.89885452  0.81875035  0.09405926    -0.22700
C1577       C  0.92585444  0.66399756  0.99891399    -0.18000
C1578       C  0.92263511  0.74315457  0.13610880    -0.18000
C1579       C  0.92109937  0.82298443  0.00246799    -0.18000
C1580       C  0.91951268  0.74395595  0.86612505    -0.18000
H1581       H  0.96406678  0.64879898  0.09091292     0.14900
H1582       H  0.96118627  0.69163343  0.16589886     0.14900
H1583       H  0.95450520  0.79766066  0.83440352     0.14900
H1584       H  0.95684590  0.84051033  0.90924942     0.14900
H1585       H  0.89257558  0.64371133  0.90300979     0.13200
H1586       H  0.89023391  0.68746994  0.83085299     0.13200
H1587       H  0.89022499  0.79783906  0.17188087     0.13200
H1588       H  0.88866702  0.84143336  0.09907221     0.13200
H1589       H  0.90650006  0.72198648  0.03541923     0.26400
H1590       H  0.90366875  0.76415537  0.96704920     0.26400
N1591       N  0.92045603  0.77445876  0.55912380    -0.36300
N1592       N  0.92685533  0.70668808  0.55861997    -0.56900
N1593       N  0.92278182  0.70684324  0.44474945    -0.36300
N1594       N  0.91918611  0.77448056  0.44577537    -0.56900
C1595       C  0.93144580  0.76805182  0.60808047     0.27300
C1596       C  0.92821899  0.80419334  0.54805930     0.27300
C1597       C  0.93453484  0.67835330  0.45487110     0.27300
C1598       C  0.93088621  0.71469380  0.39469847     0.27300
C1599       C  0.91747690  0.71284306  0.60865250     0.35900
C1600       C  0.91925555  0.67673626  0.54861974     0.35900
C1601       C  0.90875425  0.80330283  0.45658672     0.35900
C1602       C  0.90931892  0.76736266  0.39632406     0.35900
C1603       C  0.94687724  0.79373704  0.62849176    -0.21600
C1604       C  0.94519137  0.81654167  0.59026020    -0.21600
C1605       C  0.95108499  0.66830641  0.41085890    -0.21600
C1606       C  0.94865786  0.69122077  0.37282385    -0.21600
C1607       C  0.90322950  0.68705338  0.63044494    -0.22700
C1608       C  0.90426624  0.66415089  0.59242261    -0.22700
C1609       C  0.89123777  0.81421121  0.41426983    -0.22700
C1610       C  0.89156023  0.79131418  0.37602601    -0.22700
C1611       C  0.92470785  0.74056159  0.63591933    -0.18000
C1612       C  0.91799628  0.82026266  0.50222361    -0.18000
C1613       C  0.92012057  0.74141417  0.36772481    -0.18000
C1614       C  0.92788275  0.66093047  0.50140633    -0.18000
H1615       H  0.95796148  0.79584157  0.66699799     0.14900
H1616       H  0.95532437  0.83947860  0.59364313     0.14900
H1617       H  0.96369724  0.64684305  0.40626763     0.14900
H1618       H  0.95859948  0.69054052  0.33343927     0.14900
H1619       H  0.89361915  0.68485666  0.66990980     0.13200
H1620       H  0.89470438  0.64113891  0.59708605     0.13200
H1621       H  0.87967870  0.83634385  0.41089031     0.13200
H1622       H  0.88088510  0.79253401  0.33710893     0.13200
H1623       H  0.90513287  0.76043850  0.53742971     0.26400
H1624       H  0.90684862  0.71867943  0.46829356     0.26400
N1625       N  0.71703228  0.56975223  0.05305282    -0.36300
N1626       N  0.78492955  0.57352936  0.05539572    -0.56900
N1627       N  0.78525683  0.57453376  0.94112781    -0.36300
N1628       N  0.71723576  0.57464257  0.93856297    -0.56900
C1629       C  0.72289885  0.57877187  0.10366696     0.27300
C1630       C  0.68710819  0.57700188  0.04211655     0.27300
C1631       C  0.81511299  0.58215516  0.95295156     0.27300
C1632       C  0.77929580  0.58486425  0.89141487     0.27300
C1633       C  0.77854496  0.56579136  0.10611678     0.35900
C1634       C  0.81473707  0.56525027  0.04664559     0.35900
C1635       C  0.68767373  0.56463178  0.94619453     0.35900
C1636       C  0.72375926  0.56995215  0.88666092     0.35900
C1637       C  0.69666627  0.59213881  0.12520570    -0.21600
C1638       C  0.67419200  0.59145988  0.08623558    -0.21600
C1639       C  0.82790587  0.59813192  0.91036800    -0.21600
C1640       C  0.80542926  0.59951888  0.87143664    -0.21600
C1641       C  0.80415325  0.55251639  0.13001417    -0.22700
C1642       C  0.82691292  0.55149315  0.09208127    -0.22700
C1643       C  0.67574904  0.55299342  0.89866820    -0.22700
C1644       C  0.69841121  0.55689941  0.86094997    -0.22700
C1645       C  0.75056837  0.57285458  0.13192070    -0.18000
C1646       C  0.67109751  0.56882601  0.99450981    -0.18000
C1647       C  0.75192343  0.57857943  0.86197502    -0.18000
C1648       C  0.83124703  0.57284787  0.99968931    -0.18000
H1649       H  0.69401690  0.60143896  0.16487523     0.14900
H1650       H  0.65116283  0.60106117  0.09034079     0.14900
H1651       H  0.85096060  0.60791809  0.90712111     0.14900
H1652       H  0.80811450  0.60984213  0.83259015     0.14900
H1653       H  0.80609997  0.54417954  0.17037942     0.13200
H1654       H  0.84957423  0.54139253  0.09807274     0.13200
H1655       H  0.65335274  0.54238785  0.89109626     0.13200
H1656       H  0.69658747  0.55045396  0.81948955     0.13200
H1657       H  0.73146018  0.55614802  0.02947163     0.26400
H1658       H  0.77105653  0.55967612  0.96301355     0.26400
N1659       N  0.78652388  0.57188672  0.55292080    -0.36300
N1660       N  0.71866481  0.57159289  0.55479383    -0.56900
N1661       N  0.71785486  0.56870649  0.44071628    -0.36300
N1662       N  0.78586021  0.57259728  0.43865832    -0.56900
C1663       C  0.78039475  0.58240654  0.60248807     0.27300
C1664       C  0.81616380  0.58011376  0.54144804     0.27300
C1665       C  0.68782336  0.57531602  0.45195073     0.27300
C1666       C  0.72336217  0.57824151  0.39045818     0.27300
C1667       C  0.72566936  0.56562761  0.60601701     0.35900
C1668       C  0.68947576  0.56081253  0.54654955     0.35900
C1669       C  0.81588703  0.56464295  0.44692365     0.35900
C1670       C  0.77939559  0.56611944  0.38725538     0.35900
C1671       C  0.80618115  0.59777994  0.62266582    -0.21600
C1672       C  0.82867576  0.59658067  0.58403925    -0.21600
C1673       C  0.67439315  0.58981523  0.40828776    -0.21600
C1674       C  0.69672378  0.59124239  0.36934187    -0.21600
C1675       C  0.70111896  0.55069947  0.63058031    -0.22700
C1676       C  0.67831343  0.54713044  0.59264671    -0.22700
C1677       C  0.82816419  0.55246850  0.40027773    -0.22700
C1678       C  0.80522966  0.55406499  0.36238458    -0.22700
C1679       C  0.75308594  0.57586342  0.63134263    -0.18000
C1680       C  0.83235647  0.57111264  0.49486323    -0.18000
C1681       C  0.75096603  0.57274870  0.36193161    -0.18000
C1682       C  0.67231806  0.56652222  0.49950129    -0.18000
H1683       H  0.80860502  0.60851444  0.66136394     0.14900
H1684       H  0.85151354  0.60694448  0.58726278     0.14900
H1685       H  0.65107856  0.59878496  0.40438843     0.14900
H1686       H  0.69366802  0.60064106  0.32987025     0.14900
H1687       H  0.69984920  0.54315058  0.67146114     0.13200
H1688       H  0.65617112  0.53574813  0.59888442     0.13200
H1689       H  0.85096332  0.54300394  0.39324777     0.13200
H1690       H  0.80721957  0.54681138  0.32136869     0.13200
H1691       H  0.77265030  0.55671959  0.53081316     0.26400
H1692       H  0.73260794  0.55511805  0.46363435     0.26400
N1693       N  0.57242155  0.70445515  0.93921850    -0.36300
N1694       N  0.57337811  0.70477122  0.05338870    -0.56900
N1695       N  0.57146181  0.77231488  0.05294342    -0.36300
N1696       N  0.57316324  0.77216745  0.93860682    -0.56900
C1697       C  0.58234466  0.67545069  0.95043692     0.27300
C1698       C  0.58171303  0.71117924  0.88934788     0.27300
C1699       C  0.58058390  0.76573277  0.10313006     0.27300
C1700       C  0.58080232  0.80168291  0.04220164     0.27300
C1701       C  0.56567216  0.67486758  0.04377988     0.35900
C1702       C  0.56489622  0.71082750  0.10384413     0.35900
C1703       C  0.56533130  0.76576586  0.88768693     0.35900
C1704       C  0.56489064  0.80192393  0.94796259     0.35900
C1705       C  0.59879492  0.66396696  0.90731374    -0.21600
C1706       C  0.59808049  0.68644254  0.86856416    -0.21600
C1707       C  0.59624974  0.79091253  0.12462893    -0.21600
C1708       C  0.59683401  0.81345428  0.08597036    -0.21600
C1709       C  0.55137323  0.66216781  0.08814580    -0.22700
C1710       C  0.55130739  0.68491643  0.12648694    -0.22700
C1711       C  0.55159903  0.79129523  0.86444827    -0.22700
C1712       C  0.55092243  0.81410778  0.90273615    -0.22700
C1713       C  0.57453768  0.65882947  0.99716010    -0.18000
C1714       C  0.57322740  0.73806408  0.86113604    -0.18000
C1715       C  0.57273644  0.81828226  0.99540020    -0.18000
C1716       C  0.57267245  0.73841173  0.13077107    -0.18000
H1717       H  0.61024591  0.64180350  0.90369000     0.14900
H1718       H  0.60819426  0.68470060  0.82940393     0.14900
H1719       H  0.60619454  0.79283937  0.16404410     0.14900
H1720       H  0.60796441  0.83583474  0.09022604     0.14900
H1721       H  0.54199417  0.63902809  0.09295660     0.13200
H1722       H  0.54258707  0.68258395  0.16653047     0.13200
H1723       H  0.54308405  0.79328296  0.82410837     0.13200
H1724       H  0.54101634  0.83685606  0.89725928     0.13200
H1725       H  0.55691962  0.71750661  0.96173412     0.26400
H1726       H  0.55638934  0.75882608  0.02979508     0.26400
N1727       N  0.56775792  0.77215998  0.43874266    -0.36300
N1728       N  0.57386392  0.70424972  0.43852117    -0.56900
N1729       N  0.57425920  0.70469367  0.55260522    -0.36300
N1730       N  0.57132022  0.77228607  0.55304410    -0.56900
C1731       C  0.57636188  0.76591606  0.38819777     0.27300
C1732       C  0.57534167  0.80219680  0.44908871     0.27300
C1733       C  0.58503119  0.67595692  0.54155144     0.27300
C1734       C  0.58378206  0.71207549  0.60232448     0.27300
C1735       C  0.56523475  0.70963371  0.38779013     0.35900
C1736       C  0.56794644  0.67391699  0.44804573     0.35900
C1737       C  0.56110862  0.80139079  0.54390490     0.35900
C1738       C  0.56427325  0.76559371  0.60396942     0.35900
C1739       C  0.58943630  0.79212013  0.36576759    -0.21600
C1740       C  0.58933853  0.81483845  0.40427736    -0.21600
C1741       C  0.60234142  0.66538505  0.58451171    -0.21600
C1742       C  0.60121414  0.68807958  0.62308647    -0.21600
C1743       C  0.55350045  0.68283983  0.36479886    -0.22700
C1744       C  0.55469976  0.66028250  0.40318034    -0.22700
C1745       C  0.54663597  0.81281631  0.58910686    -0.22700
C1746       C  0.54895816  0.79020198  0.62731025    -0.22700
C1747       C  0.57066340  0.73773991  0.36097880    -0.18000
C1748       C  0.56813058  0.81826579  0.49709128    -0.18000
C1749       C  0.57457610  0.73879324  0.63049465    -0.18000
C1750       C  0.57709650  0.65857410  0.49538435    -0.18000
H1751       H  0.59842728  0.79453405  0.32591360     0.14900
H1752       H  0.59910315  0.83775266  0.39913249     0.14900
H1753       H  0.61455486  0.64362702  0.58810542     0.14900
H1754       H  0.61182580  0.68699023  0.66206842     0.14900
H1755       H  0.54499793  0.67988240  0.32458662     0.13200
H1756       H  0.54653574  0.63672356  0.39791681     0.13200
H1757       H  0.53553568  0.83503513  0.59449818     0.13200
H1758       H  0.54074133  0.79181603  0.66777629     0.13200
H1759       H  0.55451191  0.75759279  0.46276318     0.26400
H1760       H  0.55799915  0.71694725  0.53026429     0.26400
O1761       O  0.92229813  0.96147622  0.04546758    -0.74100
O1762       O  0.92367593  0.87260929  0.04594919    -0.74200
O1763       O  0.96736707  0.91750159  0.04503581    -0.74200
O1764       O  0.87830441  0.91547667  0.04562848    -0.74300
O1765       O  0.87758121  0.91814777  0.95763407    -0.74200
O1766       O  0.96644041  0.91510562  0.95655366    -0.74200
O1767       O  0.91996306  0.87231547  0.95797635    -0.74200
O1768       O  0.92364811  0.96115716  0.95696661    -0.74200
Ni1769     Ni  0.92288641  0.91691780  0.04870116     1.25400
Ni1770     Ni  0.92193548  0.91672570  0.95412066     1.25400
C1771       C  0.92321810  0.97595093  0.00113675     0.88000
C1772       C  0.92156965  0.85766004  0.00212872     0.88000
C1773       C  0.98149958  0.91561518  0.00050936     0.88000
C1774       C  0.86309922  0.91615260  0.00176388     0.88200
O1775       O  0.92234972  0.95930985  0.54082205    -0.74100
O1776       O  0.91731589  0.87050522  0.54444452    -0.74200
O1777       O  0.96445424  0.91275117  0.54459119    -0.74200
O1778       O  0.87569496  0.91743282  0.54105258    -0.74300
O1779       O  0.87580216  0.91336542  0.45317881    -0.74200
O1780       O  0.96503071  0.91313903  0.45604180    -0.74200
O1781       O  0.92012317  0.86903546  0.45637571    -0.74200
O1782       O  0.92100951  0.95806045  0.45231844    -0.74200
Ni1783     Ni  0.91993944  0.91504779  0.54584608     1.25400
Ni1784     Ni  0.92051237  0.91341579  0.45128296     1.25400
C1785       C  0.92202378  0.97330846  0.49603727     0.88000
C1786       C  0.91836213  0.85496370  0.50101292     0.88000
C1787       C  0.97936813  0.91240866  0.50073165     0.88000
C1788       C  0.86088178  0.91532329  0.49700755     0.88200
O1789       O  0.97005007  0.56776789  0.04414653    -0.74100
O1790       O  0.88112996  0.57237397  0.04368051    -0.74200
O1791       O  0.92349683  0.52540050  0.04473038    -0.74200
O1792       O  0.92723101  0.61454350  0.04365315    -0.74300
O1793       O  0.92701731  0.61383400  0.95557610    -0.74200
O1794       O  0.92381531  0.52480707  0.95620869    -0.74200
O1795       O  0.88080359  0.57029608  0.95569852    -0.74200
O1796       O  0.96958737  0.56749440  0.95557505    -0.74200
Ni1797     Ni  0.92552228  0.57003992  0.04722256     1.25400
Ni1798     Ni  0.92528713  0.56919933  0.95265678     1.25400
C1799       C  0.98434811  0.56630181  0.99969848     0.88000
C1800       C  0.86609302  0.57184889  0.99969875     0.88000
C1801       C  0.92352596  0.51044671  0.00064433     0.88000
C1802       C  0.92700038  0.62910233  0.99936964     0.88200
O1803       O  0.92411724  0.52235799  0.45384125    -0.74100
O1804       O  0.92912163  0.61152501  0.45572700    -0.74200
O1805       O  0.97123541  0.56437305  0.45632983    -0.74200
O1806       O  0.88261748  0.56980432  0.45313803    -0.74300
O1807       O  0.88149377  0.56787005  0.54105614    -0.74200
O1808       O  0.97047837  0.56400675  0.54488234    -0.74200
O1809       O  0.92839122  0.61070326  0.54377258    -0.74200
O1810       O  0.92379732  0.52185626  0.54236435    -0.74200
Ni1811     Ni  0.92688972  0.56699353  0.45162413     1.25400
Ni1812     Ni  0.92601718  0.56616724  0.54615814     1.25400
C1813       C  0.92318522  0.50747969  0.49785686     0.88000
C1814       C  0.92878166  0.62602964  0.50021311     0.88000
C1815       C  0.98541336  0.56315696  0.50105896     0.88000
C1816       C  0.86718629  0.56955359  0.49640206     0.88200
O1817       O  0.53190541  0.56357413  0.95476587    -0.74100
O1818       O  0.62064364  0.56733845  0.95206111    -0.74200
O1819       O  0.57767790  0.52053761  0.95393725    -0.74200
O1820       O  0.57424787  0.60929274  0.95334162    -0.74300
O1821       O  0.57879353  0.60953158  0.04121059    -0.74200
O1822       O  0.57641575  0.52069793  0.04245010    -0.74200
O1823       O  0.62202351  0.56399657  0.03982140    -0.74200
O1824       O  0.53296996  0.56628539  0.04323593    -0.74200
Ni1825     Ni  0.57614697  0.56502486  0.95037612     1.25400
Ni1826     Ni  0.57759398  0.56510071  0.04489522     1.25400
C1827       C  0.51786650  0.56557852  0.99928211     0.88000
C1828       C  0.63623762  0.56643025  0.99539609     0.88000
C1829       C  0.57709346  0.50600448  0.99826823     0.88000
C1830       C  0.57601924  0.62420025  0.99727169     0.88200
O1831       O  0.57865794  0.52083934  0.54775501    -0.74100
O1832       O  0.57695806  0.60993544  0.54207624    -0.74200
O1833       O  0.53343410  0.56491710  0.54445798    -0.74200
O1834       O  0.62272412  0.56696459  0.54441366    -0.74300
O1835       O  0.62257437  0.56192663  0.45670979    -0.74200
O1836       O  0.53390569  0.56536260  0.45590346    -0.74200
O1837       O  0.58020543  0.60804910  0.45420343    -0.74200
O1838       O  0.57652706  0.51930523  0.45932763    -0.74200
Ni1839     Ni  0.57803371  0.56561484  0.54794548     1.25400
Ni1840     Ni  0.57829296  0.56354192  0.45346852     1.25400
C1841       C  0.57729860  0.50541305  0.50420378     0.88000
C1842       C  0.57829231  0.62383193  0.49723553     0.88000
C1843       C  0.51907456  0.56592095  0.49981105     0.88000
C1844       C  0.63751675  0.56491131  0.50040239     0.88200
O1845       O  0.57546433  0.95696335  0.95259418    -0.74100
O1846       O  0.57395883  0.86812710  0.95210084    -0.74200
O1847       O  0.52995796  0.91341956  0.95305456    -0.74200
O1848       O  0.61909779  0.91166341  0.95236331    -0.74300
O1849       O  0.61938219  0.91219210  0.04050743    -0.74200
O1850       O  0.53050728  0.91373269  0.04162240    -0.74200
O1851       O  0.57342179  0.86806399  0.04013195    -0.74200
O1852       O  0.57585605  0.95712990  0.04116057    -0.74200
Ni1853     Ni  0.57457200  0.91253447  0.94938973     1.25400
Ni1854     Ni  0.57486414  0.91268518  0.04399857     1.25400
C1855       C  0.57579894  0.97164457  0.99684707     0.88000
C1856       C  0.57337440  0.85318786  0.99592444     0.88000
C1857       C  0.51564688  0.91433671  0.99757863     0.88000
C1858       C  0.63410122  0.91185397  0.99639827     0.88200
O1859       O  0.52818020  0.91370191  0.54749634    -0.74100
O1860       O  0.61735804  0.90981682  0.54659669    -0.74200
O1861       O  0.57483973  0.95635763  0.54997874    -0.74200
O1862       O  0.57099835  0.86718877  0.54422695    -0.74300
O1863       O  0.56943953  0.86894037  0.45630282    -0.74200
O1864       O  0.57446607  0.95743865  0.46144252    -0.74200
O1865       O  0.61662884  0.91168013  0.45850514    -0.74200
O1866       O  0.52802457  0.91558714  0.45899109    -0.74200
Ni1867     Ni  0.57283753  0.91166386  0.55033417     1.25400
Ni1868     Ni  0.57219110  0.91337755  0.45578685     1.25400
C1869       C  0.51354787  0.91569629  0.50318218     0.88000
C1870       C  0.63184464  0.91056977  0.50225095     0.88000
C1871       C  0.57509717  0.97149450  0.50622857     0.88000
C1872       C  0.56947653  0.85316482  0.49929443     0.88200
C1873       C  0.55335455  0.71997601  0.71657927    -0.26000
C1874       C  0.57517325  0.73834750  0.68967359    -0.14100
C1875       C  0.59698920  0.75597051  0.71936123     0.36500
C1876       C  0.59602119  0.75547040  0.77497228    -0.25500
C1877       C  0.57380649  0.73751140  0.80190712    -0.14700
C1878       C  0.55236240  0.71946332  0.77216374     0.37600
N1879       N  0.52887178  0.70108817  0.79742478    -0.89000
H1880       H  0.53686616  0.70612677  0.69401255     0.18700
H1881       H  0.61277490  0.76911528  0.79741468     0.18700
N1882       N  0.62075637  0.77396735  0.69405105    -0.88000
H1883       H  0.53957069  0.68411767  0.82050560     0.36100
H1884       H  0.51602403  0.71551881  0.82240447     0.41200
H1885       H  0.63362000  0.75923538  0.66961472     0.40800
H1886       H  0.61024255  0.79077326  0.67032638     0.35700
C1887       C  0.54585040  0.74779661  0.21660190    -0.26000
C1888       C  0.57273684  0.73853177  0.18980998    -0.14100
C1889       C  0.59863607  0.72816582  0.21934064     0.36500
C1890       C  0.59746441  0.72813736  0.27493821    -0.25500
C1891       C  0.57063699  0.73771695  0.30184755    -0.14700
C1892       C  0.54425298  0.74691478  0.27218472     0.37600
N1893       N  0.51533881  0.75482738  0.29691078    -0.89000
H1894       H  0.52566205  0.75507941  0.19403571     0.18700
H1895       H  0.61757014  0.72053636  0.29737075     0.18700
N1896       N  0.62630038  0.71755191  0.19374944    -0.88000
H1897       H  0.49880451  0.73841046  0.28460834     0.36100
H1898       H  0.51646049  0.75334448  0.33817548     0.41200
H1899       H  0.62042602  0.69879984  0.16926095     0.40800
H1900       H  0.63486236  0.73546608  0.16989509     0.35700
C1901       C  0.73743315  0.60198660  0.77379329    -0.26000
C1902       C  0.75343904  0.57922779  0.80268793    -0.14100
C1903       C  0.77052739  0.55670657  0.77498483     0.36500
C1904       C  0.77036362  0.55621755  0.71931212    -0.23900
C1905       C  0.75372476  0.57831107  0.69037867    -0.14700
C1906       C  0.73771987  0.60193134  0.71799703     0.37600
N1907       N  0.72215799  0.62636061  0.69032822    -0.89000
H1908       H  0.72474202  0.61984899  0.79472356     0.18700
H1909       H  0.78293306  0.53819004  0.69853591     0.18700
N1910       N  0.78743167  0.53366554  0.80345458    -0.88000
H1911       H  0.70492222  0.61660078  0.66604214     0.36100
H1912       H  0.73838111  0.63758334  0.66614370     0.41200
H1913       H  0.77901290  0.51224005  0.79035091     0.40800
H1914       H  0.81075214  0.53532085  0.79247659     0.35700
C1915       C  0.73855962  0.54786122  0.21847331    -0.26000
C1916       C  0.75013412  0.57364088  0.19093687    -0.14100
C1917       C  0.76174179  0.59942740  0.21975875     0.36500
C1918       C  0.76145072  0.59897142  0.27538677    -0.25500
C1919       C  0.74992318  0.57311399  0.30288322    -0.14700
C1920       C  0.73860115  0.54729499  0.27400712     0.37600
N1921       N  0.72776726  0.51995135  0.30031657    -0.89000
H1922       H  0.72994687  0.52787468  0.19660790     0.18700
H1923       H  0.77042876  0.61876488  0.29732706     0.18700
N1924       N  0.77381855  0.62629483  0.19341518    -0.88000
H1925       H  0.70918662  0.52594081  0.32480897     0.36100
H1926       H  0.74578203  0.51144865  0.32408990     0.41200
H1927       H  0.75643180  0.63506005  0.16857258     0.40800
H1928       H  0.79255290  0.61953736  0.16988393     0.35700
C1929       C  0.94255590  0.72489131  0.78169965    -0.26000
C1930       C  0.92067418  0.74382808  0.80697663    -0.14100
C1931       C  0.90039449  0.76200669  0.77571088     0.36500
C1932       C  0.90220638  0.76054393  0.72029195    -0.25500
C1933       C  0.92392405  0.74136739  0.69501333    -0.14700
C1934       C  0.94455563  0.72355339  0.72605405     0.37600
N1935       N  0.96821905  0.70515307  0.70123419    -0.89000
H1936       H  0.95820573  0.71115286  0.80570543     0.18700
H1937       H  0.88637871  0.77433480  0.69663664     0.18700
N1938       N  0.87722161  0.78145538  0.79903292    -0.88000
H1939       H  0.95738015  0.68689230  0.68089362     0.36100
H1940       H  0.98203128  0.69459380  0.72996238     0.41200
H1941       H  0.88820001  0.79854616  0.82196308     0.40800
H1942       H  0.86330614  0.76787784  0.82381748     0.35700
C1943       C  0.93699598  0.76597691  0.22489322    -0.26000
C1944       C  0.92218475  0.74229626  0.19562330    -0.14100
C1945       C  0.90608986  0.71877602  0.22331274     0.36500
C1946       C  0.90601599  0.71870705  0.27910204    -0.25500
C1947       C  0.92084438  0.74236952  0.30832014    -0.14700
C1948       C  0.93571725  0.76671670  0.28057235     0.37600
N1949       N  0.94876403  0.79272731  0.30857232    -0.89000
H1950       H  0.94919676  0.78439985  0.20431233     0.18700
H1951       H  0.89372464  0.70037252  0.29977173     0.18700
N1952       N  0.88905866  0.69536306  0.19487970    -0.88000
H1953       H  0.93661112  0.81249323  0.29679314     0.36100
H1954       H  0.97168670  0.79590702  0.29636758     0.41200
H1955       H  0.86578254  0.69650085  0.20654934     0.40800
H1956       H  0.89768294  0.67372513  0.20614641     0.35700
C1957       C  0.73175650  0.88986980  0.77749218    -0.26000
C1958       C  0.74989127  0.91162249  0.80551752    -0.14100
C1959       C  0.76743803  0.93372199  0.77699649     0.36500
C1960       C  0.76621182  0.93403527  0.72144838    -0.25500
C1961       C  0.74798056  0.91238532  0.69336168    -0.14700
C1962       C  0.73087534  0.88983066  0.72187986     0.37600
N1963       N  0.71316063  0.86613647  0.69536888    -0.89000
H1964       H  0.71834606  0.87270928  0.79905570     0.18700
H1965       H  0.77957343  0.95128325  0.69998379     0.18700
N1966       N  0.78609943  0.95654585  0.80364046    -0.88000
H1967       H  0.69579902  0.87655375  0.67264982     0.36100
H1968       H  0.72799644  0.85405007  0.66992719     0.41200
H1969       H  0.77200864  0.96863550  0.83021847     0.40800
H1970       H  0.80362542  0.94543865  0.82505026     0.35700
C1971       C  0.72384932  0.92273676  0.21840572    -0.26000
C1972       C  0.74651217  0.90496749  0.19271076    -0.14100
C1973       C  0.76781076  0.88789616  0.22358122     0.36500
C1974       C  0.76681617  0.88984660  0.27923628    -0.25500
C1975       C  0.74456025  0.90824398  0.30493580    -0.14700
C1976       C  0.72256720  0.92435919  0.27394717     0.37600
N1977       N  0.69900390  0.94265200  0.29864320    -0.89000
H1978       H  0.70730481  0.93589574  0.19513021     0.18700
H1979       H  0.78343949  0.87682345  0.30256569     0.18700
N1980       N  0.79029362  0.86839082  0.19853906    -0.88000
H1981       H  0.67738984  0.93356308  0.28724231     0.36100
H1982       H  0.70049822  0.96502102  0.28320287     0.41200
H1983       H  0.78694249  0.84575402  0.21227333     0.40800
H1984       H  0.81242216  0.87576327  0.21067765     0.35700
loop_ 
_geom_bond_atom_site_label_1 
_geom_bond_atom_site_label_2 
_geom_bond_distance 
_geom_bond_site_symmetry_2 
_ccdc_geom_bond_type 
N1            C6   1.354       .  A
N1            C5   1.354       .  A
N1           H33   1.043       .  S
N2            C9   1.350       .  A
N2           C10   1.351       .  A
N3            C8   1.352       .  A
N3            C7   1.352       .  A
N3           H34   1.042       .  S
N4           C11   1.352       .  A
N4           C12   1.351       .  A
C5           C13   1.384       .  A
C5           C21   1.415       .  A
C6           C22   1.422   1_554  A
C6           C14   1.390       .  A
C7           C15   1.392       .  A
C7           C24   1.420   1_556  A
C8           C23   1.408       .  A
C8           C16   1.383       .  A
C9           C21   1.409       .  A
C9           C17   1.384       .  A
C10          C24   1.415       .  A
C10          C18   1.389       .  A
C11          C19   1.392       .  A
C11          C22   1.421       .  A
C12          C20   1.381       .  A
C12          C23   1.407       .  A
C13          C14   1.378       .  A
C13          H25   1.082       .  S
C14          H26   1.080       .  S
C15          C16   1.379       .  A
C15          H27   1.082       .  S
C16          H28   1.082       .  S
C17          C18   1.375       .  A
C17          H29   1.082       .  S
C18          H30   1.081       .  S
C19          C20   1.374       .  A
C19          H31   1.080       .  S
C20          H32   1.083       .  S
C21         C484   1.497       .  S
C22         C370   1.502       .  S
C23         C470   1.487       .  S
C24         C286   1.493       .  S
N35          C40   1.351       .  A
N35          C39   1.354       .  A
N35          H67   1.044       .  S
N36          C43   1.351       .  A
N36          C44   1.351       .  A
N37          C42   1.354       .  A
N37          C41   1.353       .  A
N37          H68   1.044       .  S
N38          C45   1.353       .  A
N38          C46   1.352       .  A
C39          C47   1.389       .  A
C39          C55   1.420       .  A
C40          C56   1.415       .  A
C40          C48   1.386       .  A
C41          C49   1.382       .  A
C41          C58   1.409       .  A
C42          C57   1.424       .  A
C42          C50   1.393       .  A
C43          C55   1.419       .  A
C43          C51   1.391       .  A
C44          C58   1.404       .  A
C44          C52   1.381       .  A
C45          C53   1.384       .  A
C45          C56   1.413       .  A
C46          C54   1.389       .  A
C46          C57   1.419       .  A
C47          C48   1.381       .  A
C47          H59   1.081       .  S
C48          H60   1.083       .  S
C49          C50   1.377       .  A
C49          H61   1.083       .  S
C50          H62   1.080       .  S
C51          C52   1.372       .  A
C51          H63   1.081       .  S
C52          H64   1.082       .  S
C53          C54   1.374       .  A
C53          H65   1.082       .  S
C54          H66   1.081       .  S
C55         C300   1.496       .  S
C56         C487   1.498       .  S
C57         C382   1.500       .  S
C58         C473   1.488       .  S
N69          C74   1.354       .  A
N69          C73   1.354       .  A
N69         H101   1.044       .  S
N70          C77   1.352       .  A
N70          C78   1.351       .  A
N71          C76   1.351       .  A
N71          C75   1.349       .  A
N71         H102   1.044       .  S
N72          C79   1.351       .  A
N72          C80   1.353       .  A
C73          C81   1.391       .  A
C73          C89   1.424   1_554  A
C74          C90   1.415       .  A
C74          C82   1.384       .  A
C75          C83   1.384       .  A
C75          C92   1.406       .  A
C76          C91   1.416   1_556  A
C76          C84   1.390       .  A
C77          C89   1.422       .  A
C77          C85   1.391       .  A
C78          C92   1.409       .  A
C78          C86   1.382       .  A
C79          C87   1.384       .  A
C79          C90   1.412       .  A
C80          C88   1.388       .  A
C80          C91   1.418       .  A
C81          C82   1.380       .  A
C81          H93   1.081       .  S
C82          H94   1.082       .  S
C83          C84   1.377       .  A
C83          H95   1.083       .  S
C84          H96   1.081       .  S
C85          C86   1.375       .  A
C85          H97   1.079       .  S
C86          H98   1.083       .  S
C87          C88   1.376       .  A
C87          H99   1.082       .  S
C88         H100   1.081       .  S
C89         C314   1.503       .  S
C90         C456   1.501       .  S
C91         C284   1.495       .  S
C92         C442   1.487       .  S
N103        C108   1.353       .  A
N103        C107   1.351       .  A
N103        H135   1.042       .  S
N104        C111   1.349       .  A
N104        C112   1.352       .  A
N105        C110   1.352       .  A
N105        C109   1.354       .  A
N105        H136   1.043       .  S
N106        C113   1.352       .  A
N106        C114   1.351       .  A
C107        C115   1.384       .  A
C107        C123   1.411       .  A
C108        C124   1.421       .  A
C108        C116   1.391       .  A
C109        C117   1.389       .  A
C109        C126   1.421       .  A
C110        C125   1.415       .  A
C110        C118   1.386       .  A
C111        C123   1.407       .  A
C111        C119   1.383       .  A
C112        C126   1.418       .  A
C112        C120   1.390       .  A
C113        C121   1.388       .  A
C113        C124   1.417       .  A
C114        C122   1.384       .  A
C114        C125   1.412       .  A
C115        C116   1.381       .  A
C115        H127   1.083       .  S
C116        H128   1.081       .  S
C117        C118   1.381       .  A
C117        H129   1.082       .  S
C118        H130   1.082       .  S
C119        C120   1.374       .  A
C119        H131   1.083       .  S
C120        H132   1.079       .  S
C121        C122   1.377       .  A
C121        H133   1.082       .  S
C122        H134   1.082       .  S
C123        C445   1.487       .  S
C124        C298   1.499       .  S
C125        C459   1.499       .  S
C126        C326   1.500       .  S
N137        C142   1.353       .  A
N137        C141   1.354       .  A
N137        H169   1.043       .  S
N138        C145   1.350       .  A
N138        C146   1.351       .  A
N139        C144   1.354       .  A
N139        C143   1.353       .  A
N139        H170   1.043       .  S
N140        C147   1.353       .  A
N140        C148   1.352       .  A
C141        C149   1.383       .  A
C141        C157   1.410       .  A
C142        C158   1.422   1_554  A
C142        C150   1.392       .  A
C143        C151   1.389       .  A
C143        C160   1.420   1_556  A
C144        C159   1.412       .  A
C144        C152   1.383       .  A
C145        C157   1.406       .  A
C145        C153   1.382       .  A
C146        C160   1.420       .  A
C146        C154   1.392       .  A
C147        C155   1.391       .  A
C147        C158   1.422       .  A
C148        C156   1.382       .  A
C148        C159   1.411       .  A
C149        C150   1.376       .  A
C149        H161   1.082       .  S
C150        H162   1.081       .  S
C151        C152   1.376       .  A
C151        H163   1.080       .  S
C152        H164   1.082       .  S
C153        C154   1.375       .  A
C153        H165   1.083       .  S
C154        H166   1.080       .  S
C155        C156   1.374       .  A
C155        H167   1.080       .  S
C156        H168   1.082       .  S
C157        C428   1.489       .  S
C158        C340   1.499       .  S
C159        C414   1.498       .  S
C160        C312   1.497       .  S
N171        C176   1.354       .  A
N171        C175   1.353       .  A
N171        H203   1.041       .  S
N172        C179   1.352       .  A
N172        C180   1.353       .  A
N173        C178   1.354       .  A
N173        C177   1.353       .  A
N173        H204   1.041       .  S
N174        C181   1.352       .  A
N174        C182   1.350       .  A
C175        C183   1.385       .  A
C175        C191   1.413       .  A
C176        C192   1.420       .  A
C176        C184   1.389       .  A
C177        C185   1.392       .  A
C177        C194   1.423       .  A
C178        C193   1.411       .  A
C178        C186   1.383       .  A
C179        C191   1.411       .  A
C179        C187   1.383       .  A
C180        C194   1.420       .  A
C180        C188   1.390       .  A
C181        C189   1.391       .  A
C181        C192   1.421       .  A
C182        C190   1.382       .  A
C182        C193   1.406       .  A
C183        C184   1.379       .  A
C183        H195   1.082       .  S
C184        H196   1.080       .  S
C185        C186   1.377       .  A
C185        H197   1.081       .  S
C186        H198   1.083       .  S
C187        C188   1.375       .  A
C187        H199   1.082       .  S
C188        H200   1.081       .  S
C189        C190   1.374       .  A
C189        H201   1.080       .  S
C190        H202   1.083       .  S
C191        C417   1.496       .  S
C192        C328   1.500       .  S
C193        C431   1.489       .  S
C194        C356   1.499       .  S
N205        C210   1.352       .  A
N205        C209   1.354       .  A
N205        H237   1.043       .  S
N206        C213   1.352       .  A
N206        C214   1.350       .  A
N207        C212   1.355       .  A
N207        C211   1.354       .  A
N207        H238   1.043       .  S
N208        C215   1.353       .  A
N208        C216   1.355       .  A
C209        C217   1.391       .  A
C209        C225   1.422       .  A
C210        C226   1.411       .  A
C210        C218   1.384       .  A
C211        C219   1.383       .  A
C211        C228   1.412       .  A
C212        C227   1.425   1_554  A
C212        C220   1.391       .  A
C213        C225   1.419   1_554  A
C213        C221   1.390       .  A
C214        C228   1.408       .  A
C214        C222   1.383       .  A
C215        C223   1.382       .  A
C215        C226   1.411       .  A
C216        C224   1.391       .  A
C216        C227   1.425       .  A
C217        C218   1.377       .  A
C217        H229   1.081       .  S
C218        H230   1.082       .  S
C219        C220   1.376       .  A
C219        H231   1.082       .  S
C220        H232   1.079       .  S
C221        C222   1.372       .  A
C221        H233   1.080       .  S
C222        H234   1.082       .  S
C223        C224   1.374       .  A
C223        H235   1.083       .  S
C224        H236   1.080       .  S
C225        C342   1.497       .  S
C226        C389   1.492       .  S
C227        C368   1.507       .  S
C228        C400   1.490       .  S
N239        C244   1.356       .  A
N239        C243   1.353       .  A
N239        H271   1.044       .  S
N240        C247   1.351       .  A
N240        C248   1.353       .  A
N241        C246   1.353       .  A
N241        C245   1.353       .  A
N241        H272   1.043       .  S
N242        C249   1.352       .  A
N242        C250   1.351       .  A
C243        C251   1.384       .  A
C243        C259   1.412       .  A
C244        C260   1.424       .  A
C244        C252   1.391       .  A
C245        C253   1.391       .  A
C245        C262   1.421       .  A
C246        C261   1.410       .  A
C246        C254   1.383       .  A
C247        C259   1.410       .  A
C247        C255   1.383       .  A
C248        C262   1.422       .  A
C248        C256   1.391       .  A
C249        C257   1.391       .  A
C249        C260   1.420       .  A
C250        C258   1.382       .  A
C250        C261   1.408       .  A
C251        C252   1.376       .  A
C251        H263   1.082       .  S
C252        H264   1.080       .  S
C253        C254   1.376       .  A
C253        H265   1.081       .  S
C254        H266   1.082       .  S
C255        C256   1.375       .  A
C255        H267   1.082       .  S
C256        H268   1.080       .  S
C257        C258   1.376       .  A
C257        H269   1.081       .  S
C258        H270   1.083       .  S
C259        C403   1.491       .  S
C260        C384   1.504       .  S
C261        C386   1.490       .  S
C262        C354   1.498       .  S
O273       Ni281   1.928       .  S
O273        C283   1.283       .  A
O274       Ni281   1.915       .  S
O274        C284   1.280       .  A
O275       Ni281   1.919       .  S
O275        C285   1.282       .  A
O276       Ni281   1.922       .  S
O276        C286   1.283       .  A
O277       Ni282   1.906       .  S
O277        C286   1.279   1_556  A
O278       Ni282   1.915       .  S
O278        C285   1.279   1_556  A
O279       Ni282   1.920       .  S
O279        C284   1.283   1_556  A
O280       Ni282   1.921       .  S
O280        C283   1.282   1_556  A
Ni281      Ni282   2.383   1_554  S
C283        C809   1.477       .  S
C285       C1361   1.467   1_554  S
O287       Ni295   1.917       .  S
O287        C297   1.281       .  A
O288       Ni295   1.924       .  S
O288        C298   1.282       .  A
O289       Ni295   1.917       .  S
O289        C299   1.280       .  A
O290       Ni295   1.910       .  S
O290        C300   1.281       .  A
O291       Ni296   1.925       .  S
O291        C300   1.282       .  A
O292       Ni296   1.917       .  S
O292        C299   1.281       .  A
O293       Ni296   1.919       .  S
O293        C298   1.282       .  A
O294       Ni296   1.928       .  S
O294        C297   1.283       .  A
Ni295      Ni296   2.383       .  S
C297        C821   1.474       .  S
C299       C1373   1.467       .  S
O301       Ni309   1.922       .  S
O301        C311   1.282   1_554  A
O302       Ni309   1.914       .  S
O302        C312   1.280       .  A
O303       Ni309   1.924       .  S
O303        C313   1.282       .  A
O304       Ni309   1.919       .  S
O304        C314   1.281   1_554  A
O305       Ni310   1.922       .  S
O305        C314   1.282       .  A
O306       Ni310   1.913       .  S
O306        C313   1.280   1_556  A
O307       Ni310   1.917       .  S
O307        C312   1.282   1_556  A
O308       Ni310   1.913       .  S
O308        C311   1.280       .  A
Ni309      Ni310   2.383   1_554  S
C311       C1331   1.468       .  S
C313        C779   1.469   1_545  S
O315       Ni323   1.924       .  S
O315        C325   1.282       .  A
O316       Ni323   1.920       .  S
O316        C326   1.281       .  A
O317       Ni323   1.917       .  S
O317        C327   1.281       .  A
O318       Ni323   1.913       .  S
O318        C328   1.280       .  A
O319       Ni324   1.926       .  S
O319        C328   1.283       .  A
O320       Ni324   1.920       .  S
O320        C327   1.281       .  A
O321       Ni324   1.920       .  S
O321        C326   1.282       .  A
O322       Ni324   1.914       .  S
O322        C325   1.280       .  A
Ni323      Ni324   2.383       .  S
C325        C793   1.470   1_545  S
C327       C1347   1.469       .  S
O329       Ni337   1.910       .  S
O329        C339   1.280       .  A
O330       Ni337   1.916       .  S
O330        C340   1.280       .  A
O331       Ni337   1.926       .  S
O331        C341   1.282       .  A
O332       Ni337   1.913       .  S
O332        C342   1.280       .  A
O333       Ni338   1.918       .  S
O333        C342   1.282   1_554  A
O334       Ni338   1.917       .  S
O334        C341   1.281   1_554  A
O335       Ni338   1.913       .  S
O335        C340   1.281   1_554  A
O336       Ni338   1.923       .  S
O336        C339   1.282   1_554  A
Ni337      Ni338   2.381   1_556  S
C339       C1303   1.466   1_455  S
C341        C863   1.472   1_545  S
O343       Ni351   1.930       .  S
O343        C353   1.283       .  A
O344       Ni351   1.916       .  S
O344        C354   1.282       .  A
O345       Ni351   1.910       .  S
O345        C355   1.279       .  A
O346       Ni351   1.920       .  S
O346        C356   1.282       .  A
O347       Ni352   1.912       .  S
O347        C356   1.280       .  A
O348       Ni352   1.916       .  S
O348        C355   1.281       .  A
O349       Ni352   1.917       .  S
O349        C354   1.280       .  A
O350       Ni352   1.913       .  S
O350        C353   1.280       .  A
Ni351      Ni352   2.381       .  S
C353        C879   1.473   1_545  S
C355       C1319   1.462   1_455  S
O357       Ni365   1.921       .  S
O357        C367   1.281       .  A
O358       Ni365   1.916       .  S
O358        C368   1.280       .  A
O359       Ni365   1.926       .  S
O359        C369   1.283       .  A
O360       Ni365   1.917       .  S
O360        C370   1.281       .  A
O361       Ni366   1.919       .  S
O361        C370   1.281   1_554  A
O362       Ni366   1.913       .  S
O362        C369   1.280   1_554  A
O363       Ni366   1.927       .  S
O363        C368   1.283   1_554  A
O364       Ni366   1.918       .  S
O364        C367   1.281   1_554  A
Ni365      Ni366   2.381   1_556  S
C367        C837   1.470       .  S
C369       C1277   1.470   1_455  S
O371       Ni379   1.923       .  S
O371        C381   1.283       .  A
O372       Ni379   1.915       .  S
O372        C382   1.280       .  A
O373       Ni379   1.928       .  S
O373        C383   1.282       .  A
O374       Ni379   1.918       .  S
O374        C384   1.281       .  A
O375       Ni380   1.922       .  S
O375        C384   1.282       .  A
O376       Ni380   1.915       .  S
O376        C383   1.281       .  A
O377       Ni380   1.916       .  S
O377        C382   1.281       .  A
O378       Ni380   1.911       .  S
O378        C381   1.279       .  A
Ni379      Ni380   2.382       .  S
C381       C1291   1.467   1_455  S
C383        C849   1.473       .  S
C385        C386   1.401       .  A
C385        C390   1.401       .  A
C385        H392   1.081       .  S
C386        C387   1.413       .  A
C387        C388   1.402       .  A
C387        N394   1.432       .  S
C388        C389   1.404       .  A
C388        H393   1.084       .  S
C389        C390   1.413       .  A
C390        N391   1.432       .  S
N391        H395   1.044       .  S
N391        H396   1.046       .  S
N394        H397   1.045       .  S
N394        H398   1.045       .  S
C399        C400   1.403       .  A
C399        C404   1.402       .  A
C399        H406   1.084       .  S
C400        C401   1.417       .  A
C401        C402   1.403       .  A
C401        N408   1.438       .  S
C402        C403   1.404       .  A
C402        H407   1.084       .  S
C403        C404   1.416       .  A
C404        N405   1.437       .  S
N405        H409   1.046       .  S
N405        H410   1.043       .  S
N408        H411   1.043       .  S
N408        H412   1.046       .  S
C413        C414   1.406       .  A
C413        C418   1.404       .  A
C413        H420   1.084       .  S
C414        C415   1.410       .  A
C415        C416   1.404       .  A
C415        N422   1.432       .  S
C416        C417   1.404       .  A
C416        H421   1.084       .  S
C417        C418   1.416       .  A
C418        N419   1.433       .  S
N419        H423   1.043       .  S
N419        H424   1.046       .  S
N422        H425   1.044       .  S
N422        H426   1.046       .  S
C427        C428   1.403       .  A
C427        C432   1.401       .  A
C427        H434   1.084       .  S
C428        C429   1.414       .  A
C429        C430   1.402       .  A
C429        N436   1.432       .  S
C430        C431   1.403       .  A
C430        H435   1.084       .  S
C431        C432   1.410       .  A
C432        N433   1.430       .  S
N433        H437   1.045       .  S
N433        H438   1.046       .  S
N436        H439   1.046       .  S
N436        H440   1.045       .  S
C441        C442   1.401       .  A
C441        C446   1.405       .  A
C441        H448   1.083       .  S
C442        C443   1.414       .  A
C443        C444   1.399       .  A
C443        N450   1.433       .  S
C444        C445   1.403       .  A
C444        H449   1.084       .  S
C445        C446   1.413       .  A
C446        N447   1.438       .  S
N447        H451   1.043       .  S
N447        H452   1.043       .  S
N450        H453   1.044       .  S
N450        H454   1.046       .  S
C455        C456   1.406       .  A
C455        C460   1.404       .  A
C455        H462   1.084       .  S
C456        C457   1.412       .  A
C457        C458   1.407       .  A
C457        N464   1.432       .  S
C458        C459   1.406       .  A
C458        H463   1.084       .  S
C459        C460   1.412       .  A
C460        N461   1.433       .  S
N461        H465   1.046       .  S
N461        H466   1.043       .  S
N464        H467   1.046       .  S
N464        H468   1.045       .  S
C469        C470   1.403       .  A
C469        C474   1.401       .  A
C469        H476   1.084       .  S
C470        C471   1.413       .  A
C471        C472   1.400       .  A
C471        N478   1.432       .  S
C472        C473   1.403       .  A
C472        H477   1.084       .  S
C473        C474   1.412       .  A
C474        N475   1.432       .  S
N475        H479   1.045       .  S
N475        H480   1.046       .  S
N478        H481   1.046       .  S
N478        H482   1.045       .  S
C483        C484   1.405       .  A
C483        C488   1.405       .  A
C483        H490   1.084       .  S
C484        C485   1.412       .  A
C485        C486   1.404       .  A
C485        N492   1.432       .  S
C486        C487   1.405       .  A
C486        H491   1.084       .  S
C487        C488   1.412       .  A
C488        N489   1.432       .  S
N489        H493   1.046       .  S
N489        H494   1.043       .  S
N492        H495   1.046       .  S
N492        H496   1.046       .  S
N497        C502   1.353       .  A
N497        C501   1.353       .  A
N497        H529   1.040       .  S
N498        C505   1.351       .  A
N498        C506   1.352       .  A
N499        C504   1.355       .  A
N499        C503   1.354       .  A
N499        H530   1.040       .  S
N500        C507   1.353       .  A
N500        C508   1.351       .  A
C501        C509   1.384       .  A
C501        C517   1.412       .  A
C502        C518   1.420   1_554  A
C502        C510   1.390       .  A
C503        C511   1.392       .  A
C503        C520   1.424   1_556  A
C504        C519   1.411       .  A
C504        C512   1.383       .  A
C505        C517   1.409       .  A
C505        C513   1.383       .  A
C506        C520   1.418       .  A
C506        C514   1.390       .  A
C507        C515   1.392       .  A
C507        C518   1.423       .  A
C508        C516   1.382       .  A
C508        C519   1.408       .  A
C509        C510   1.378       .  A
C509        H521   1.082       .  S
C510        H522   1.081       .  S
C511        C512   1.377       .  A
C511        H523   1.081       .  S
C512        H524   1.082       .  S
C513        C514   1.373       .  A
C513        H525   1.082       .  S
C514        H526   1.080       .  S
C515        C516   1.373       .  A
C515        H527   1.080       .  S
C516        H528   1.082       .  S
C517        C980   1.491       .  S
C518        C866   1.500       .  S
C519        C966   1.490       .  S
C520        C782   1.500       .  S
N531        C536   1.353       .  A
N531        C535   1.355       .  A
N531        H563   1.042       .  S
N532        C539   1.352       .  A
N532        C540   1.352       .  A
N533        C538   1.353       .  A
N533        C537   1.353       .  A
N533        H564   1.043       .  S
N534        C541   1.352       .  A
N534        C542   1.353       .  A
C535        C543   1.391       .  A
C535        C551   1.422       .  A
C536        C552   1.414       .  A
C536        C544   1.384       .  A
C537        C545   1.382       .  A
C537        C554   1.409       .  A
C538        C553   1.422       .  A
C538        C546   1.391       .  A
C539        C551   1.421       .  A
C539        C547   1.392       .  A
C540        C554   1.406       .  A
C540        C548   1.381       .  A
C541        C549   1.384       .  A
C541        C552   1.411       .  A
C542        C550   1.390       .  A
C542        C553   1.420       .  A
C543        C544   1.379       .  A
C543        H555   1.081       .  S
C544        H556   1.083       .  S
C545        C546   1.378       .  A
C545        H557   1.082       .  S
C546        H558   1.081       .  S
C547        C548   1.370       .  A
C547        H559   1.080       .  S
C548        H560   1.082       .  S
C549        C550   1.374       .  A
C549        H561   1.082       .  S
C550        H562   1.081       .  S
C551        C796   1.499       .  S
C552        C983   1.494       .  S
C553        C878   1.500       .  S
C554        C969   1.489       .  S
N565        C570   1.354       .  A
N565        C569   1.355       .  A
N565        H597   1.044       .  S
N566        C573   1.354       .  A
N566        C574   1.352       .  A
N567        C572   1.352       .  A
N567        C571   1.349       .  A
N567        H598   1.044       .  S
N568        C575   1.349       .  A
N568        C576   1.352       .  A
C569        C577   1.390       .  A
C569        C585   1.424   1_554  A
C570        C586   1.416       .  A
C570        C578   1.384       .  A
C571        C579   1.385       .  A
C571        C588   1.407       .  A
C572        C587   1.415       .  A
C572        C580   1.390       .  A
C573        C585   1.424       .  A
C573        C581   1.391       .  A
C574        C588   1.411       .  A
C574        C582   1.382       .  A
C575        C583   1.385       .  A
C575        C586   1.411       .  A
C576        C584   1.388       .  A
C576        C587   1.416   1_554  A
C577        C578   1.381       .  A
C577        H589   1.081       .  S
C578        H590   1.082       .  S
C579        C580   1.377       .  A
C579        H591   1.082       .  S
C580        H592   1.081       .  S
C581        C582   1.376       .  A
C581        H593   1.078       .  S
C582        H594   1.083       .  S
C583        C584   1.374       .  A
C583        H595   1.082       .  S
C584        H596   1.081       .  S
C585        C810   1.507       .  S
C586        C952   1.499       .  S
C587        C780   1.493       .  S
C588        C938   1.490       .  S
N599        C604   1.352       .  A
N599        C603   1.350       .  A
N599        H631   1.043       .  S
N600        C607   1.351       .  A
N600        C608   1.352       .  A
N601        C606   1.353       .  A
N601        C605   1.356       .  A
N601        H632   1.043       .  S
N602        C609   1.352       .  A
N602        C610   1.350       .  A
C603        C611   1.384       .  A
C603        C619   1.408       .  A
C604        C620   1.418       .  A
C604        C612   1.390       .  A
C605        C613   1.389       .  A
C605        C622   1.423       .  A
C606        C621   1.417       .  A
C606        C614   1.386       .  A
C607        C619   1.408       .  A
C607        C615   1.382       .  A
C608        C622   1.421       .  A
C608        C616   1.390       .  A
C609        C617   1.389       .  A
C609        C620   1.418       .  A
C610        C618   1.385       .  A
C610        C621   1.412       .  A
C611        C612   1.380       .  A
C611        H623   1.082       .  S
C612        H624   1.081       .  S
C613        C614   1.381       .  A
C613        H625   1.081       .  S
C614        H626   1.082       .  S
C615        C616   1.374       .  A
C615        H627   1.083       .  S
C616        H628   1.078       .  S
C617        C618   1.377       .  A
C617        H629   1.082       .  S
C618        H630   1.082       .  S
C619        C941   1.489       .  S
C620        C794   1.495       .  S
C621        C955   1.499       .  S
C622        C822   1.506       .  S
N633        C638   1.353       .  A
N633        C637   1.356       .  A
N633        H665   1.043       .  S
N634        C641   1.350       .  A
N634        C642   1.351       .  A
N635        C640   1.352       .  A
N635        C639   1.353       .  A
N635        H666   1.043       .  S
N636        C643   1.355       .  A
N636        C644   1.354       .  A
C637        C645   1.382       .  A
C637        C653   1.411       .  A
C638        C654   1.424   1_554  A
C638        C646   1.392       .  A
C639        C647   1.389       .  A
C639        C656   1.419       .  A
C640        C655   1.411       .  A
C640        C648   1.385       .  A
C641        C653   1.405       .  A
C641        C649   1.381       .  A
C642        C656   1.419   1_554  A
C642        C650   1.391       .  A
C643        C651   1.392       .  A
C643        C654   1.425       .  A
C644        C652   1.382       .  A
C644        C655   1.413       .  A
C645        C646   1.376       .  A
C645        H657   1.082       .  S
C646        H658   1.081       .  S
C647        C648   1.377       .  A
C647        H659   1.079       .  S
C648        H660   1.083       .  S
C649        C650   1.374       .  A
C649        H661   1.082       .  S
C650        H662   1.080       .  S
C651        C652   1.375       .  A
C651        H663   1.080       .  S
C652        H664   1.083       .  S
C653        C924   1.493       .  S
C654        C836   1.503       .  S
C655        C910   1.495       .  S
C656        C808   1.495       .  S
N667        C672   1.352       .  A
N667        C671   1.354       .  A
N667        H699   1.042       .  S
N668        C675   1.351       .  A
N668        C676   1.353       .  A
N669        C674   1.355       .  A
N669        C673   1.354       .  A
N669        H700   1.044       .  S
N670        C677   1.352       .  A
N670        C678   1.351       .  A
C671        C679   1.383       .  A
C671        C687   1.412       .  A
C672        C688   1.421       .  A
C672        C680   1.389       .  A
C673        C681   1.392       .  A
C673        C690   1.425       .  A
C674        C689   1.413       .  A
C674        C682   1.383       .  A
C675        C687   1.409       .  A
C675        C683   1.382       .  A
C676        C690   1.420       .  A
C676        C684   1.390       .  A
C677        C685   1.392       .  A
C677        C688   1.422       .  A
C678        C686   1.382       .  A
C678        C689   1.408       .  A
C679        C680   1.377       .  A
C679        H691   1.082       .  S
C680        H692   1.079       .  S
C681        C682   1.377       .  A
C681        H693   1.081       .  S
C682        H694   1.082       .  S
C683        C684   1.373       .  A
C683        H695   1.083       .  S
C684        H696   1.080       .  S
C685        C686   1.374       .  A
C685        H697   1.080       .  S
C686        H698   1.083       .  S
C687        C913   1.494       .  S
C688        C824   1.498       .  S
C689        C927   1.494       .  S
C690        C852   1.502       .  S
N701        C706   1.351       .  A
N701        C705   1.352       .  A
N701        H733   1.043       .  S
N702        C709   1.350       .  A
N702        C710   1.349       .  A
N703        C708   1.356       .  A
N703        C707   1.355       .  A
N703        H734   1.044       .  S
N704        C711   1.352       .  A
N704        C712   1.352       .  A
C705        C713   1.390       .  A
C705        C721   1.418       .  A
C706        C722   1.408       .  A
C706        C714   1.384       .  A
C707        C715   1.382       .  A
C707        C724   1.413       .  A
C708        C723   1.427   1_554  A
C708        C716   1.392       .  A
C709        C721   1.416   1_554  A
C709        C717   1.390       .  A
C710        C724   1.406       .  A
C710        C718   1.383       .  A
C711        C719   1.382       .  A
C711        C722   1.410       .  A
C712        C720   1.392       .  A
C712        C723   1.423       .  A
C713        C714   1.377       .  A
C713        H725   1.081       .  S
C714        H726   1.082       .  S
C715        C716   1.379       .  A
C715        H727   1.082       .  S
C716        H728   1.080       .  S
C717        C718   1.375       .  A
C717        H729   1.081       .  S
C718        H730   1.083       .  S
C719        C720   1.376       .  A
C719        H731   1.083       .  S
C720        H732   1.081       .  S
C721        C838   1.491       .  S
C722        C885   1.491       .  S
C723        C864   1.506       .  S
C724        C896   1.492       .  S
N735        C740   1.356       .  A
N735        C739   1.352       .  A
N735        H767   1.044       .  S
N736        C743   1.350       .  A
N736        C744   1.352       .  A
N737        C742   1.352       .  A
N737        C741   1.354       .  A
N737        H768   1.043       .  S
N738        C745   1.351       .  A
N738        C746   1.350       .  A
C739        C747   1.383       .  A
C739        C755   1.412       .  A
C740        C756   1.424       .  A
C740        C748   1.391       .  A
C741        C749   1.391       .  A
C741        C758   1.421       .  A
C742        C757   1.410       .  A
C742        C750   1.384       .  A
C743        C755   1.408       .  A
C743        C751   1.383       .  A
C744        C758   1.420       .  A
C744        C752   1.391       .  A
C745        C753   1.390       .  A
C745        C756   1.419       .  A
C746        C754   1.384       .  A
C746        C757   1.408       .  A
C747        C748   1.378       .  A
C747        H759   1.082       .  S
C748        H760   1.080       .  S
C749        C750   1.378       .  A
C749        H761   1.081       .  S
C750        H762   1.082       .  S
C751        C752   1.376       .  A
C751        H763   1.083       .  S
C752        H764   1.081       .  S
C753        C754   1.377       .  A
C753        H765   1.081       .  S
C754        H766   1.083       .  S
C755        C899   1.491       .  S
C756        C880   1.504       .  S
C757        C882   1.490       .  S
C758        C850   1.498       .  S
O769       Ni777   1.922       .  S
O769        C779   1.281       .  A
O770       Ni777   1.910       .  S
O770        C780   1.279   1_554  A
O771       Ni777   1.916       .  S
O771        C781   1.282   1_554  A
O772       Ni777   1.923       .  S
O772        C782   1.283       .  A
O773       Ni778   1.909       .  S
O773        C782   1.279   1_556  A
O774       Ni778   1.915       .  S
O774        C781   1.280       .  A
O775       Ni778   1.919       .  S
O775        C780   1.283       .  A
O776       Ni778   1.915       .  S
O776        C779   1.281   1_556  A
Ni777      Ni778   2.383   1_554  S
C781       C1857   1.465       .  S
O783       Ni791   1.915       .  S
O783        C793   1.281       .  A
O784       Ni791   1.922       .  S
O784        C794   1.283       .  A
O785       Ni791   1.915       .  S
O785        C795   1.279       .  A
O786       Ni791   1.906       .  S
O786        C796   1.279       .  A
O787       Ni792   1.923       .  S
O787        C796   1.282       .  A
O788       Ni792   1.914       .  S
O788        C795   1.282       .  A
O789       Ni792   1.913       .  S
O789        C794   1.280       .  A
O790       Ni792   1.923       .  S
O790        C793   1.282       .  A
Ni791      Ni792   2.382       .  S
C795       C1869   1.464       .  S
O797       Ni805   1.915       .  S
O797        C807   1.280   1_554  A
O798       Ni805   1.910       .  S
O798        C808   1.280   1_554  A
O799       Ni805   1.930       .  S
O799        C809   1.283       .  A
O800       Ni805   1.924       .  S
O800        C810   1.283   1_554  A
O801       Ni806   1.927       .  S
O801        C810   1.283       .  A
O802       Ni806   1.920       .  S
O802        C809   1.281   1_556  A
O803       Ni806   1.920       .  S
O803        C808   1.282       .  A
O804       Ni806   1.911       .  S
O804        C807   1.280       .  A
Ni805      Ni806   2.383   1_554  S
C807       C1827   1.462       .  S
O811       Ni819   1.931       .  S
O811        C821   1.283       .  A
O812       Ni819   1.927       .  S
O812        C822   1.283       .  A
O813       Ni819   1.918       .  S
O813        C823   1.282       .  A
O814       Ni819   1.915       .  S
O814        C824   1.280       .  A
O815       Ni820   1.918       .  S
O815        C824   1.282       .  A
O816       Ni820   1.914       .  S
O816        C823   1.279       .  A
O817       Ni820   1.922       .  S
O817        C822   1.282       .  A
O818       Ni820   1.914       .  S
O818        C821   1.280       .  A
Ni819      Ni820   2.383       .  S
C823       C1843   1.466       .  S
O825       Ni833   1.910       .  S
O825        C835   1.280       .  A
O826       Ni833   1.919       .  S
O826        C836   1.281       .  A
O827       Ni833   1.925       .  S
O827        C837   1.283       .  A
O828       Ni833   1.911       .  S
O828        C838   1.280       .  A
O829       Ni834   1.915       .  S
O829        C838   1.281   1_554  A
O830       Ni834   1.914       .  S
O830        C837   1.280   1_554  A
O831       Ni834   1.913       .  S
O831        C836   1.281   1_554  A
O832       Ni834   1.918       .  S
O832        C835   1.281   1_554  A
Ni833      Ni834   2.382   1_556  S
C835       C1799   1.463   1_455  S
O839       Ni847   1.930       .  S
O839        C849   1.283       .  A
O840       Ni847   1.917       .  S
O840        C850   1.281       .  A
O841       Ni847   1.915       .  S
O841        C851   1.281       .  A
O842       Ni847   1.925       .  S
O842        C852   1.283       .  A
O843       Ni848   1.911       .  S
O843        C852   1.279       .  A
O844       Ni848   1.912       .  S
O844        C851   1.280       .  A
O845       Ni848   1.919       .  S
O845        C850   1.282       .  A
O846       Ni848   1.914       .  S
O846        C849   1.280       .  A
Ni847      Ni848   2.381       .  S
C851       C1815   1.463   1_455  S
O853       Ni861   1.925       .  S
O853        C863   1.282       .  A
O854       Ni861   1.918       .  S
O854        C864   1.281       .  A
O855       Ni861   1.916       .  S
O855        C865   1.281       .  A
O856       Ni861   1.911       .  S
O856        C866   1.279       .  A
O857       Ni862   1.924       .  S
O857        C866   1.283   1_554  A
O858       Ni862   1.915       .  S
O858        C865   1.280   1_554  A
O859       Ni862   1.925       .  S
O859        C864   1.282   1_554  A
O860       Ni862   1.918       .  S
O860        C863   1.281   1_554  A
Ni861      Ni862   2.382   1_556  S
C865       C1773   1.465   1_456  S
O867       Ni875   1.925       .  S
O867        C877   1.283       .  A
O868       Ni875   1.920       .  S
O868        C878   1.282       .  A
O869       Ni875   1.928       .  S
O869        C879   1.282       .  A
O870       Ni875   1.921       .  S
O870        C880   1.282       .  A
O871       Ni876   1.924       .  S
O871        C880   1.282       .  A
O872       Ni876   1.915       .  S
O872        C879   1.281       .  A
O873       Ni876   1.917       .  S
O873        C878   1.281       .  A
O874       Ni876   1.909       .  S
O874        C877   1.279       .  A
Ni875      Ni876   2.383       .  S
C877       C1787   1.468   1_455  S
C881        C882   1.402       .  A
C881        C886   1.400       .  A
C881        H888   1.083       .  S
C882        C883   1.414       .  A
C883        C884   1.402       .  A
C883        N890   1.432       .  S
C884        C885   1.404       .  A
C884        H889   1.084       .  S
C885        C886   1.414       .  A
C886        N887   1.432       .  S
N887        H891   1.044       .  S
N887        H892   1.045       .  S
N890        H893   1.046       .  S
N890        H894   1.044       .  S
C895        C896   1.403       .  A
C895        C900   1.400       .  A
C895        H902   1.084       .  S
C896        C897   1.421       .  A
C897        C898   1.406       .  A
C897        N904   1.439       .  S
C898        C899   1.402       .  A
C898        H903   1.084       .  S
C899        C900   1.409       .  A
C900        N901   1.428       .  S
N901        H905   1.046       .  S
N901        H906   1.044       .  S
N904        H907   1.043       .  S
N904        H908   1.045       .  S
C909        C910   1.404       .  A
C909        C914   1.404       .  A
C909        H916   1.084       .  S
C910        C911   1.410       .  A
C911        C912   1.404       .  A
C911        N918   1.432       .  S
C912        C913   1.403       .  A
C912        H917   1.084       .  S
C913        C914   1.416       .  A
C914        N915   1.433       .  S
N915        H919   1.045       .  S
N915        H920   1.045       .  S
N918        H921   1.046       .  S
N918        H922   1.045       .  S
C923        C924   1.403       .  A
C923        C928   1.402       .  A
C923        H930   1.084       .  S
C924        C925   1.415       .  A
C925        C926   1.402       .  A
C925        N932   1.432       .  S
C926        C927   1.404       .  A
C926        H931   1.084       .  S
C927        C928   1.412       .  A
C928        N929   1.430       .  S
N929        H933   1.045       .  S
N929        H934   1.045       .  S
N932        H935   1.046       .  S
N932        H936   1.044       .  S
C937        C938   1.402       .  A
C937        C942   1.405       .  A
C937        H944   1.083       .  S
C938        C939   1.415       .  A
C939        C940   1.400       .  A
C939        N946   1.433       .  S
C940        C941   1.404       .  A
C940        H945   1.084       .  S
C941        C942   1.413       .  A
C942        N943   1.438       .  S
N943        H947   1.043       .  S
N943        H948   1.043       .  S
N946        H949   1.044       .  S
N946        H950   1.045       .  S
C951        C952   1.406       .  A
C951        C956   1.405       .  A
C951        H958   1.084       .  S
C952        C953   1.410       .  A
C953        C954   1.406       .  A
C953        N960   1.432       .  S
C954        C955   1.406       .  A
C954        H959   1.084       .  S
C955        C956   1.413       .  A
C956        N957   1.433       .  S
N957        H961   1.045       .  S
N957        H962   1.043       .  S
N960        H963   1.046       .  S
N960        H964   1.045       .  S
C965        C966   1.403       .  A
C965        C970   1.402       .  A
C965        H972   1.084       .  S
C966        C967   1.413       .  A
C967        C968   1.402       .  A
C967        N974   1.432       .  S
C968        C969   1.403       .  A
C968        H973   1.084       .  S
C969        C970   1.413       .  A
C970        N971   1.433       .  S
N971        H975   1.045       .  S
N971        H976   1.045       .  S
N974        H977   1.045       .  S
N974        H978   1.046       .  S
C979        C980   1.402       .  A
C979        C984   1.403       .  A
C979        H986   1.084       .  S
C980        C981   1.410       .  A
C981        C982   1.406       .  A
C981        N988   1.432       .  S
C982        C983   1.405       .  A
C982        H987   1.084       .  S
C983        C984   1.411       .  A
C984        N985   1.431       .  S
N985        H989   1.045       .  S
N985        H990   1.043       .  S
N988        H991   1.046       .  S
N988        H992   1.045       .  S
N993        C998   1.354       .  A
N993        C997   1.353       .  A
N993       H1025   1.042       .  S
N994       C1001   1.351       .  A
N994       C1002   1.352       .  A
N995       C1000   1.354       .  A
N995        C999   1.353       .  A
N995       H1026   1.041       .  S
N996       C1003   1.350       .  A
N996       C1004   1.349       .  A
C997       C1005   1.383       .  A
C997       C1013   1.411       .  A
C998       C1014   1.420   1_554  A
C998       C1006   1.390       .  A
C999       C1007   1.392       .  A
C999       C1016   1.424   1_556  A
C1000      C1015   1.412       .  A
C1000      C1008   1.383       .  A
C1001      C1013   1.410       .  A
C1001      C1009   1.382       .  A
C1002      C1016   1.421       .  A
C1002      C1010   1.391       .  A
C1003      C1011   1.390       .  A
C1003      C1014   1.416       .  A
C1004      C1012   1.383       .  A
C1004      C1015   1.406       .  A
C1005      C1006   1.375       .  A
C1005      H1017   1.082       .  S
C1006      H1018   1.079       .  S
C1007      C1008   1.379       .  A
C1007      H1019   1.081       .  S
C1008      H1020   1.083       .  S
C1009      C1010   1.375       .  A
C1009      H1021   1.082       .  S
C1010      H1022   1.080       .  S
C1011      C1012   1.375       .  A
C1011      H1023   1.081       .  S
C1012      H1024   1.083       .  S
C1013      C1476   1.495       .  S
C1014      C1362   1.497       .  S
C1015      C1462   1.489       .  S
C1016      C1278   1.498       .  S
N1027      C1032   1.351       .  A
N1027      C1031   1.353       .  A
N1027      H1059   1.044       .  S
N1028      C1035   1.352       .  A
N1028      C1036   1.351       .  A
N1029      C1034   1.354       .  A
N1029      C1033   1.352       .  A
N1029      H1060   1.042       .  S
N1030      C1037   1.351       .  A
N1030      C1038   1.351       .  A
C1031      C1039   1.389       .  A
C1031      C1047   1.418       .  A
C1032      C1048   1.411       .  A
C1032      C1040   1.385       .  A
C1033      C1041   1.383       .  A
C1033      C1050   1.410       .  A
C1034      C1049   1.424       .  A
C1034      C1042   1.392       .  A
C1035      C1047   1.420       .  A
C1035      C1043   1.391       .  A
C1036      C1050   1.408       .  A
C1036      C1044   1.382       .  A
C1037      C1045   1.383       .  A
C1037      C1048   1.410       .  A
C1038      C1046   1.389       .  A
C1038      C1049   1.419       .  A
C1039      C1040   1.379       .  A
C1039      H1051   1.081       .  S
C1040      H1052   1.082       .  S
C1041      C1042   1.380       .  A
C1041      H1053   1.083       .  S
C1042      H1054   1.081       .  S
C1043      C1044   1.374       .  A
C1043      H1055   1.081       .  S
C1044      H1056   1.083       .  S
C1045      C1046   1.376       .  A
C1045      H1057   1.082       .  S
C1046      H1058   1.081       .  S
C1047      C1292   1.498       .  S
C1048      C1479   1.493       .  S
C1049      C1374   1.500       .  S
C1050      C1465   1.489       .  S
N1061      C1066   1.352       .  A
N1061      C1065   1.355       .  A
N1061      H1093   1.045       .  S
N1062      C1069   1.353       .  A
N1062      C1070   1.351       .  A
N1063      C1068   1.352       .  A
N1063      C1067   1.351       .  A
N1063      H1094   1.044       .  S
N1064      C1071   1.351       .  A
N1064      C1072   1.352       .  A
C1065      C1073   1.390       .  A
C1065      C1081   1.422   1_554  A
C1066      C1082   1.413       .  A
C1066      C1074   1.384       .  A
C1067      C1075   1.385       .  A
C1067      C1084   1.409       .  A
C1068      C1083   1.418       .  A
C1068      C1076   1.390       .  A
C1069      C1081   1.422       .  A
C1069      C1077   1.390       .  A
C1070      C1084   1.410       .  A
C1070      C1078   1.383       .  A
C1071      C1079   1.384       .  A
C1071      C1082   1.412       .  A
C1072      C1080   1.389       .  A
C1072      C1083   1.418   1_554  A
C1073      C1074   1.379       .  A
C1073      H1085   1.081       .  S
C1074      H1086   1.082       .  S
C1075      C1076   1.378       .  A
C1075      H1087   1.082       .  S
C1076      H1088   1.081       .  S
C1077      C1078   1.376       .  A
C1077      H1089   1.080       .  S
C1078      H1090   1.083       .  S
C1079      C1080   1.376       .  A
C1079      H1091   1.082       .  S
C1080      H1092   1.081       .  S
C1081      C1306   1.505       .  S
C1082      C1448   1.497       .  S
C1083      C1276   1.496       .  S
C1084      C1434   1.489       .  S
N1095      C1100   1.352       .  A
N1095      C1099   1.350       .  A
N1095      H1127   1.043       .  S
N1096      C1103   1.352       .  A
N1096      C1104   1.353       .  A
N1097      C1102   1.354       .  A
N1097      C1101   1.355       .  A
N1097      H1128   1.043       .  S
N1098      C1105   1.352       .  A
N1098      C1106   1.349       .  A
C1099      C1107   1.384       .  A
C1099      C1115   1.408       .  A
C1100      C1116   1.418       .  A
C1100      C1108   1.390       .  A
C1101      C1109   1.390       .  A
C1101      C1118   1.423       .  A
C1102      C1117   1.416       .  A
C1102      C1110   1.385       .  A
C1103      C1115   1.410       .  A
C1103      C1111   1.382       .  A
C1104      C1118   1.422       .  A
C1104      C1112   1.391       .  A
C1105      C1113   1.389       .  A
C1105      C1116   1.418       .  A
C1106      C1114   1.384       .  A
C1106      C1117   1.410       .  A
C1107      C1108   1.379       .  A
C1107      H1119   1.082       .  S
C1108      H1120   1.081       .  S
C1109      C1110   1.380       .  A
C1109      H1121   1.081       .  S
C1110      H1122   1.082       .  S
C1111      C1112   1.376       .  A
C1111      H1123   1.083       .  S
C1112      H1124   1.079       .  S
C1113      C1114   1.376       .  A
C1113      H1125   1.081       .  S
C1114      H1126   1.082       .  S
C1115      C1437   1.490       .  S
C1116      C1290   1.496       .  S
C1117      C1451   1.498       .  S
C1118      C1318   1.505       .  S
N1129      C1134   1.354       .  A
N1129      C1133   1.355       .  A
N1129      H1161   1.042       .  S
N1130      C1137   1.350       .  A
N1130      C1138   1.350       .  A
N1131      C1136   1.352       .  A
N1131      C1135   1.353       .  A
N1131      H1162   1.043       .  S
N1132      C1139   1.353       .  A
N1132      C1140   1.352       .  A
C1133      C1141   1.382       .  A
C1133      C1149   1.410       .  A
C1134      C1150   1.424   1_554  A
C1134      C1142   1.392       .  A
C1135      C1143   1.389       .  A
C1135      C1152   1.418       .  A
C1136      C1151   1.411       .  A
C1136      C1144   1.384       .  A
C1137      C1149   1.406       .  A
C1137      C1145   1.382       .  A
C1138      C1152   1.418   1_554  A
C1138      C1146   1.392       .  A
C1139      C1147   1.390       .  A
C1139      C1150   1.421       .  A
C1140      C1148   1.383       .  A
C1140      C1151   1.412       .  A
C1141      C1142   1.376       .  A
C1141      H1153   1.083       .  S
C1142      H1154   1.081       .  S
C1143      C1144   1.377       .  A
C1143      H1155   1.081       .  S
C1144      H1156   1.082       .  S
C1145      C1146   1.374       .  A
C1145      H1157   1.083       .  S
C1146      H1158   1.080       .  S
C1147      C1148   1.376       .  A
C1147      H1159   1.081       .  S
C1148      H1160   1.082       .  S
C1149      C1420   1.491       .  S
C1150      C1332   1.501       .  S
C1151      C1406   1.495       .  S
C1152      C1304   1.495       .  S
N1163      C1168   1.351       .  A
N1163      C1167   1.352       .  A
N1163      H1195   1.042       .  S
N1164      C1171   1.349       .  A
N1164      C1172   1.350       .  A
N1165      C1170   1.353       .  A
N1165      C1169   1.354       .  A
N1165      H1196   1.041       .  S
N1166      C1173   1.352       .  A
N1166      C1174   1.349       .  A
C1167      C1175   1.384       .  A
C1167      C1183   1.410       .  A
C1168      C1184   1.417       .  A
C1168      C1176   1.390       .  A
C1169      C1177   1.391       .  A
C1169      C1186   1.422       .  A
C1170      C1185   1.412       .  A
C1170      C1178   1.384       .  A
C1171      C1183   1.408       .  A
C1171      C1179   1.384       .  A
C1172      C1186   1.415       .  A
C1172      C1180   1.389       .  A
C1173      C1181   1.391       .  A
C1173      C1184   1.419       .  A
C1174      C1182   1.383       .  A
C1174      C1185   1.408       .  A
C1175      C1176   1.378       .  A
C1175      H1187   1.082       .  S
C1176      H1188   1.081       .  S
C1177      C1178   1.379       .  A
C1177      H1189   1.081       .  S
C1178      H1190   1.082       .  S
C1179      C1180   1.377       .  A
C1179      H1191   1.082       .  S
C1180      H1192   1.081       .  S
C1181      C1182   1.375       .  A
C1181      H1193   1.080       .  S
C1182      H1194   1.083       .  S
C1183      C1409   1.491       .  S
C1184      C1320   1.495       .  S
C1185      C1423   1.489       .  S
C1186      C1348   1.498       .  S
N1197      C1202   1.353       .  A
N1197      C1201   1.355       .  A
N1197      H1229   1.043       .  S
N1198      C1205   1.351       .  A
N1198      C1206   1.350       .  A
N1199      C1204   1.354       .  A
N1199      C1203   1.354       .  A
N1199      H1230   1.044       .  S
N1200      C1207   1.353       .  A
N1200      C1208   1.355       .  A
C1201      C1209   1.390       .  A
C1201      C1217   1.422       .  A
C1202      C1218   1.413       .  A
C1202      C1210   1.384       .  A
C1203      C1211   1.382       .  A
C1203      C1220   1.411       .  A
C1204      C1219   1.423   1_554  A
C1204      C1212   1.390       .  A
C1205      C1217   1.418   1_554  A
C1205      C1213   1.391       .  A
C1206      C1220   1.406       .  A
C1206      C1214   1.383       .  A
C1207      C1215   1.383       .  A
C1207      C1218   1.413       .  A
C1208      C1216   1.391       .  A
C1208      C1219   1.426       .  A
C1209      C1210   1.379       .  A
C1209      H1221   1.081       .  S
C1210      H1222   1.082       .  S
C1211      C1212   1.378       .  A
C1211      H1223   1.082       .  S
C1212      H1224   1.079       .  S
C1213      C1214   1.372       .  A
C1213      H1225   1.080       .  S
C1214      H1226   1.082       .  S
C1215      C1216   1.375       .  A
C1215      H1227   1.083       .  S
C1216      H1228   1.080       .  S
C1217      C1334   1.498       .  S
C1218      C1381   1.496       .  S
C1219      C1360   1.507       .  S
C1220      C1392   1.489       .  S
N1231      C1236   1.358       .  A
N1231      C1235   1.354       .  A
N1231      H1263   1.043       .  S
N1232      C1239   1.351       .  A
N1232      C1240   1.353       .  A
N1233      C1238   1.352       .  A
N1233      C1237   1.353       .  A
N1233      H1264   1.044       .  S
N1234      C1241   1.351       .  A
N1234      C1242   1.350       .  A
C1235      C1243   1.383       .  A
C1235      C1251   1.413       .  A
C1236      C1252   1.428       .  A
C1236      C1244   1.392       .  A
C1237      C1245   1.390       .  A
C1237      C1254   1.419       .  A
C1238      C1253   1.410       .  A
C1238      C1246   1.383       .  A
C1239      C1251   1.410       .  A
C1239      C1247   1.383       .  A
C1240      C1254   1.422       .  A
C1240      C1248   1.391       .  A
C1241      C1249   1.390       .  A
C1241      C1252   1.419       .  A
C1242      C1250   1.383       .  A
C1242      C1253   1.408       .  A
C1243      C1244   1.377       .  A
C1243      H1255   1.082       .  S
C1244      H1256   1.079       .  S
C1245      C1246   1.376       .  A
C1245      H1257   1.081       .  S
C1246      H1258   1.082       .  S
C1247      C1248   1.376       .  A
C1247      H1259   1.082       .  S
C1248      H1260   1.080       .  S
C1249      C1250   1.377       .  A
C1249      H1261   1.081       .  S
C1250      H1262   1.082       .  S
C1251      C1395   1.491       .  S
C1252      C1376   1.506       .  S
C1253      C1378   1.492       .  S
C1254      C1346   1.499       .  S
O1265     Ni1273   1.925       .  S
O1265      C1275   1.282       .  A
O1266     Ni1273   1.913       .  S
O1266      C1276   1.280   1_554  A
O1267     Ni1273   1.917       .  S
O1267      C1277   1.282   1_554  A
O1268     Ni1273   1.921       .  S
O1268      C1278   1.282       .  A
O1269     Ni1274   1.913       .  S
O1269      C1278   1.280   1_556  A
O1270     Ni1274   1.921       .  S
O1270      C1277   1.281       .  A
O1271     Ni1274   1.921       .  S
O1271      C1276   1.283       .  A
O1272     Ni1274   1.920       .  S
O1272      C1275   1.282   1_556  A
Ni1273    Ni1274   2.382   1_554  S
C1275      C1801   1.473       .  S
O1279     Ni1287   1.919       .  S
O1279      C1289   1.282       .  A
O1280     Ni1287   1.923       .  S
O1280      C1290   1.283       .  A
O1281     Ni1287   1.913       .  S
O1281      C1291   1.279       .  A
O1282     Ni1287   1.907       .  S
O1282      C1292   1.279       .  A
O1283     Ni1288   1.927       .  S
O1283      C1292   1.284       .  A
O1284     Ni1288   1.920       .  S
O1284      C1291   1.282       .  A
O1285     Ni1288   1.914       .  S
O1285      C1290   1.280       .  A
O1286     Ni1288   1.922       .  S
O1286      C1289   1.281       .  A
Ni1287    Ni1288   2.383       .  S
C1289      C1813   1.472       .  S
O1293     Ni1301   1.919       .  S
O1293      C1303   1.281   1_554  A
O1294     Ni1301   1.909       .  S
O1294      C1304   1.279   1_554  A
O1295     Ni1301   1.925       .  S
O1295      C1305   1.283       .  A
O1296     Ni1301   1.922       .  S
O1296      C1306   1.283   1_554  A
O1297     Ni1302   1.926       .  S
O1297      C1306   1.282       .  A
O1298     Ni1302   1.914       .  S
O1298      C1305   1.280   1_556  A
O1299     Ni1302   1.918       .  S
O1299      C1304   1.282       .  A
O1300     Ni1302   1.914       .  S
O1300      C1303   1.281       .  A
Ni1301    Ni1302   2.383   1_554  S
C1305      C1771   1.471   1_545  S
O1307     Ni1315   1.928       .  S
O1307      C1317   1.283       .  A
O1308     Ni1315   1.925       .  S
O1308      C1318   1.283       .  A
O1309     Ni1315   1.914       .  S
O1309      C1319   1.280       .  A
O1310     Ni1315   1.910       .  S
O1310      C1320   1.279       .  A
O1311     Ni1316   1.918       .  S
O1311      C1320   1.283       .  A
O1312     Ni1316   1.912       .  S
O1312      C1319   1.280       .  A
O1313     Ni1316   1.921       .  S
O1313      C1318   1.281       .  A
O1314     Ni1316   1.911       .  S
O1314      C1317   1.280       .  A
Ni1315    Ni1316   2.384       .  S
C1317      C1785   1.470   1_545  S
O1321     Ni1329   1.917       .  S
O1321      C1331   1.281       .  A
O1322     Ni1329   1.924       .  S
O1322      C1332   1.282       .  A
O1323     Ni1329   1.921       .  S
O1323      C1333   1.282       .  A
O1324     Ni1329   1.915       .  S
O1324      C1334   1.280       .  A
O1325     Ni1330   1.919       .  S
O1325      C1334   1.282   1_554  A
O1326     Ni1330   1.914       .  S
O1326      C1333   1.280   1_554  A
O1327     Ni1330   1.911       .  S
O1327      C1332   1.280   1_554  A
O1328     Ni1330   1.919       .  S
O1328      C1331   1.281   1_554  A
Ni1329    Ni1330   2.381   1_556  S
C1333      C1855   1.467   1_545  S
O1335     Ni1343   1.928       .  S
O1335      C1345   1.282       .  A
O1336     Ni1343   1.918       .  S
O1336      C1346   1.283       .  A
O1337     Ni1343   1.920       .  S
O1337      C1347   1.281       .  A
O1338     Ni1343   1.927       .  S
O1338      C1348   1.284       .  A
O1339     Ni1344   1.913       .  S
O1339      C1348   1.280       .  A
O1340     Ni1344   1.917       .  S
O1340      C1347   1.281       .  A
O1341     Ni1344   1.915       .  S
O1341      C1346   1.279       .  A
O1342     Ni1344   1.908       .  S
O1342      C1345   1.280       .  A
Ni1343    Ni1344   2.383       .  S
C1345      C1871   1.468   1_545  S
O1349     Ni1357   1.915       .  S
O1349      C1359   1.280       .  A
O1350     Ni1357   1.914       .  S
O1350      C1360   1.279       .  A
O1351     Ni1357   1.924       .  S
O1351      C1361   1.283       .  A
O1352     Ni1357   1.916       .  S
O1352      C1362   1.281       .  A
O1353     Ni1358   1.912       .  S
O1353      C1362   1.280   1_554  A
O1354     Ni1358   1.909       .  S
O1354      C1361   1.278   1_554  A
O1355     Ni1358   1.932       .  S
O1355      C1360   1.285   1_554  A
O1356     Ni1358   1.921       .  S
O1356      C1359   1.282   1_554  A
Ni1357    Ni1358   2.383   1_556  S
C1359      C1829   1.468       .  S
O1363     Ni1371   1.922       .  S
O1363      C1373   1.282       .  A
O1364     Ni1371   1.918       .  S
O1364      C1374   1.280       .  A
O1365     Ni1371   1.934       .  S
O1365      C1375   1.284       .  A
O1366     Ni1371   1.927       .  S
O1366      C1376   1.284       .  A
O1367     Ni1372   1.919       .  S
O1367      C1376   1.280       .  A
O1368     Ni1372   1.910       .  S
O1368      C1375   1.279       .  A
O1369     Ni1372   1.921       .  S
O1369      C1374   1.283       .  A
O1370     Ni1372   1.913       .  S
O1370      C1373   1.280       .  A
Ni1371    Ni1372   2.382       .  S
C1375      C1841   1.474       .  S
C1377      C1378   1.402       .  A
C1377      C1382   1.402       .  A
C1377      H1384   1.082       .  S
C1378      C1379   1.414       .  A
C1379      C1380   1.403       .  A
C1379      N1386   1.433       .  S
C1380      C1381   1.405       .  A
C1380      H1385   1.084       .  S
C1381      C1382   1.416       .  A
C1382      N1383   1.433       .  S
N1383      H1387   1.044       .  S
N1383      H1388   1.045       .  S
N1386      H1389   1.046       .  S
N1386      H1390   1.044       .  S
C1391      C1392   1.403       .  A
C1391      C1396   1.400       .  A
C1391      H1398   1.084       .  S
C1392      C1393   1.417       .  A
C1393      C1394   1.405       .  A
C1393      N1400   1.437       .  S
C1394      C1395   1.404       .  A
C1394      H1399   1.084       .  S
C1395      C1396   1.410       .  A
C1396      N1397   1.430       .  S
N1397      H1401   1.045       .  S
N1397      H1402   1.045       .  S
N1400      H1403   1.044       .  S
N1400      H1404   1.045       .  S
C1405      C1406   1.404       .  A
C1405      C1410   1.402       .  A
C1405      H1412   1.084       .  S
C1406      C1407   1.411       .  A
C1407      C1408   1.403       .  A
C1407      N1414   1.430       .  S
C1408      C1409   1.402       .  A
C1408      H1413   1.084       .  S
C1409      C1410   1.415       .  A
C1410      N1411   1.433       .  S
N1411      H1415   1.043       .  S
N1411      H1416   1.045       .  S
N1414      H1417   1.042       .  S
N1414      H1418   1.045       .  S
C1419      C1420   1.403       .  A
C1419      C1424   1.400       .  A
C1419      H1426   1.084       .  S
C1420      C1421   1.416       .  A
C1421      C1422   1.401       .  A
C1421      N1428   1.433       .  S
C1422      C1423   1.403       .  A
C1422      H1427   1.084       .  S
C1423      C1424   1.411       .  A
C1424      N1425   1.430       .  S
N1425      H1429   1.044       .  S
N1425      H1430   1.046       .  S
N1428      H1431   1.046       .  S
N1428      H1432   1.043       .  S
C1433      C1434   1.402       .  A
C1433      C1438   1.406       .  A
C1433      H1440   1.083       .  S
C1434      C1435   1.413       .  A
C1435      C1436   1.401       .  A
C1435      N1442   1.433       .  S
C1436      C1437   1.404       .  A
C1436      H1441   1.084       .  S
C1437      C1438   1.412       .  A
C1438      N1439   1.437       .  S
N1439      H1443   1.043       .  S
N1439      H1444   1.044       .  S
N1442      H1445   1.044       .  S
N1442      H1446   1.045       .  S
C1447      C1448   1.405       .  A
C1447      C1452   1.405       .  A
C1447      H1454   1.084       .  S
C1448      C1449   1.411       .  A
C1449      C1450   1.405       .  A
C1449      N1456   1.432       .  S
C1450      C1451   1.405       .  A
C1450      H1455   1.084       .  S
C1451      C1452   1.413       .  A
C1452      N1453   1.433       .  S
N1453      H1457   1.045       .  S
N1453      H1458   1.044       .  S
N1456      H1459   1.046       .  S
N1456      H1460   1.045       .  S
C1461      C1462   1.403       .  A
C1461      C1466   1.403       .  A
C1461      H1468   1.084       .  S
C1462      C1463   1.409       .  A
C1463      C1464   1.401       .  A
C1463      N1470   1.429       .  S
C1464      C1465   1.403       .  A
C1464      H1469   1.084       .  S
C1465      C1466   1.414       .  A
C1466      N1467   1.432       .  S
N1467      H1471   1.045       .  S
N1467      H1472   1.046       .  S
N1470      H1473   1.046       .  S
N1470      H1474   1.044       .  S
C1475      C1476   1.405       .  A
C1475      C1480   1.404       .  A
C1475      H1482   1.084       .  S
C1476      C1477   1.410       .  A
C1477      C1478   1.405       .  A
C1477      N1484   1.432       .  S
C1478      C1479   1.405       .  A
C1478      H1483   1.084       .  S
C1479      C1480   1.410       .  A
C1480      N1481   1.432       .  S
N1481      H1485   1.045       .  S
N1481      H1486   1.043       .  S
N1484      H1487   1.046       .  S
N1484      H1488   1.045       .  S
N1489      C1494   1.354       .  A
N1489      C1493   1.353       .  A
N1489      H1521   1.042       .  S
N1490      C1497   1.350       .  A
N1490      C1498   1.351       .  A
N1491      C1496   1.353       .  A
N1491      C1495   1.352       .  A
N1491      H1522   1.042       .  S
N1492      C1499   1.350       .  A
N1492      C1500   1.349       .  A
C1493      C1501   1.384       .  A
C1493      C1509   1.412       .  A
C1494      C1510   1.421   1_554  A
C1494      C1502   1.389       .  A
C1495      C1503   1.391       .  A
C1495      C1512   1.420   1_556  A
C1496      C1511   1.411       .  A
C1496      C1504   1.384       .  A
C1497      C1509   1.408       .  A
C1497      C1505   1.383       .  A
C1498      C1512   1.416       .  A
C1498      C1506   1.390       .  A
C1499      C1507   1.391       .  A
C1499      C1510   1.418       .  A
C1500      C1508   1.383       .  A
C1500      C1511   1.407       .  A
C1501      C1502   1.377       .  A
C1501      H1513   1.082       .  S
C1502      H1514   1.080       .  S
C1503      C1504   1.379       .  A
C1503      H1515   1.081       .  S
C1504      H1516   1.083       .  S
C1505      C1506   1.374       .  A
C1505      H1517   1.082       .  S
C1506      H1518   1.081       .  S
C1507      C1508   1.376       .  A
C1507      H1519   1.081       .  S
C1508      H1520   1.083       .  S
C1509      C1972   1.493       .  S
C1510      C1858   1.497       .  S
C1511      C1958   1.490       .  S
C1512      C1774   1.496       .  S
N1523      C1528   1.352       .  A
N1523      C1527   1.354       .  A
N1523      H1555   1.043       .  S
N1524      C1531   1.351       .  A
N1524      C1532   1.352       .  A
N1525      C1530   1.352       .  A
N1525      C1529   1.351       .  A
N1525      H1556   1.043       .  S
N1526      C1533   1.351       .  A
N1526      C1534   1.352       .  A
C1527      C1535   1.390       .  A
C1527      C1543   1.421       .  A
C1528      C1544   1.414       .  A
C1528      C1536   1.385       .  A
C1529      C1537   1.383       .  A
C1529      C1546   1.408       .  A
C1530      C1545   1.419       .  A
C1530      C1538   1.391       .  A
C1531      C1543   1.420       .  A
C1531      C1539   1.391       .  A
C1532      C1546   1.407       .  A
C1532      C1540   1.381       .  A
C1533      C1541   1.384       .  A
C1533      C1544   1.411       .  A
C1534      C1542   1.389       .  A
C1534      C1545   1.418       .  A
C1535      C1536   1.380       .  A
C1535      H1547   1.081       .  S
C1536      H1548   1.083       .  S
C1537      C1538   1.379       .  A
C1537      H1549   1.082       .  S
C1538      H1550   1.081       .  S
C1539      C1540   1.373       .  A
C1539      H1551   1.081       .  S
C1540      H1552   1.082       .  S
C1541      C1542   1.374       .  A
C1541      H1553   1.082       .  S
C1542      H1554   1.081       .  S
C1543      C1788   1.498       .  S
C1544      C1975   1.496       .  S
C1545      C1870   1.497       .  S
C1546      C1961   1.491       .  S
N1557      C1562   1.353       .  A
N1557      C1561   1.355       .  A
N1557      H1589   1.044       .  S
N1558      C1565   1.352       .  A
N1558      C1566   1.352       .  A
N1559      C1564   1.351       .  A
N1559      C1563   1.351       .  A
N1559      H1590   1.044       .  S
N1560      C1567   1.351       .  A
N1560      C1568   1.352       .  A
C1561      C1569   1.390       .  A
C1561      C1577   1.424   1_554  A
C1562      C1578   1.415       .  A
C1562      C1570   1.385       .  A
C1563      C1571   1.384       .  A
C1563      C1580   1.407       .  A
C1564      C1579   1.417   1_556  A
C1564      C1572   1.391       .  A
C1565      C1577   1.422       .  A
C1565      C1573   1.390       .  A
C1566      C1580   1.409       .  A
C1566      C1574   1.381       .  A
C1567      C1575   1.385       .  A
C1567      C1578   1.414       .  A
C1568      C1576   1.389       .  A
C1568      C1579   1.418       .  A
C1569      C1570   1.381       .  A
C1569      H1581   1.081       .  S
C1570      H1582   1.083       .  S
C1571      C1572   1.377       .  A
C1571      H1583   1.082       .  S
C1572      H1584   1.081       .  S
C1573      C1574   1.374       .  A
C1573      H1585   1.078       .  S
C1574      H1586   1.083       .  S
C1575      C1576   1.375       .  A
C1575      H1587   1.082       .  S
C1576      H1588   1.081       .  S
C1577      C1802   1.505       .  S
C1578      C1944   1.500       .  S
C1579      C1772   1.495       .  S
C1580      C1930   1.491       .  S
N1591      C1596   1.353       .  A
N1591      C1595   1.349       .  A
N1591      H1623   1.043       .  S
N1592      C1599   1.351       .  A
N1592      C1600   1.353       .  A
N1593      C1598   1.353       .  A
N1593      C1597   1.355       .  A
N1593      H1624   1.043       .  S
N1594      C1601   1.351       .  A
N1594      C1602   1.348       .  A
C1595      C1603   1.384       .  A
C1595      C1611   1.408       .  A
C1596      C1612   1.418       .  A
C1596      C1604   1.390       .  A
C1597      C1605   1.390       .  A
C1597      C1614   1.423       .  A
C1598      C1613   1.418       .  A
C1598      C1606   1.386       .  A
C1599      C1611   1.409       .  A
C1599      C1607   1.382       .  A
C1600      C1614   1.421       .  A
C1600      C1608   1.390       .  A
C1601      C1609   1.388       .  A
C1601      C1612   1.415       .  A
C1602      C1610   1.386       .  A
C1602      C1613   1.411       .  A
C1603      C1604   1.380       .  A
C1603      H1615   1.082       .  S
C1604      H1616   1.081       .  S
C1605      C1606   1.382       .  A
C1605      H1617   1.081       .  S
C1606      H1618   1.082       .  S
C1607      C1608   1.375       .  A
C1607      H1619   1.082       .  S
C1608      H1620   1.078       .  S
C1609      C1610   1.378       .  A
C1609      H1621   1.082       .  S
C1610      H1622   1.082       .  S
C1611      C1933   1.490       .  S
C1612      C1786   1.496       .  S
C1613      C1947   1.498       .  S
C1614      C1814   1.505       .  S
N1625      C1630   1.353       .  A
N1625      C1629   1.354       .  A
N1625      H1657   1.043       .  S
N1626      C1633   1.350       .  A
N1626      C1634   1.351       .  A
N1627      C1632   1.354       .  A
N1627      C1631   1.355       .  A
N1627      H1658   1.043       .  S
N1628      C1635   1.355       .  A
N1628      C1636   1.353       .  A
C1629      C1637   1.382       .  A
C1629      C1645   1.409       .  A
C1630      C1646   1.423   1_554  A
C1630      C1638   1.392       .  A
C1631      C1639   1.390       .  A
C1631      C1648   1.424       .  A
C1632      C1647   1.413       .  A
C1632      C1640   1.383       .  A
C1633      C1645   1.404       .  A
C1633      C1641   1.381       .  A
C1634      C1648   1.420   1_554  A
C1634      C1642   1.392       .  A
C1635      C1643   1.392       .  A
C1635      C1646   1.425       .  A
C1636      C1644   1.382       .  A
C1636      C1647   1.412       .  A
C1637      C1638   1.375       .  A
C1637      H1649   1.083       .  S
C1638      H1650   1.081       .  S
C1639      C1640   1.376       .  A
C1639      H1651   1.079       .  S
C1640      H1652   1.083       .  S
C1641      C1642   1.372       .  A
C1641      H1653   1.083       .  S
C1642      H1654   1.080       .  S
C1643      C1644   1.374       .  A
C1643      H1655   1.080       .  S
C1644      H1656   1.083       .  S
C1645      C1916   1.487       .  S
C1646      C1828   1.502       .  S
C1647      C1902   1.496       .  S
C1648      C1800   1.499       .  S
N1659      C1664   1.354       .  A
N1659      C1663   1.355       .  A
N1659      H1691   1.041       .  S
N1660      C1667   1.350       .  A
N1660      C1668   1.351       .  A
N1661      C1666   1.354       .  A
N1661      C1665   1.355       .  A
N1661      H1692   1.040       .  S
N1662      C1669   1.353       .  A
N1662      C1670   1.351       .  A
C1663      C1671   1.383       .  A
C1663      C1679   1.411       .  A
C1664      C1680   1.421       .  A
C1664      C1672   1.390       .  A
C1665      C1673   1.392       .  A
C1665      C1682   1.425       .  A
C1666      C1681   1.411       .  A
C1666      C1674   1.383       .  A
C1667      C1679   1.406       .  A
C1667      C1675   1.382       .  A
C1668      C1682   1.416       .  A
C1668      C1676   1.390       .  A
C1669      C1677   1.393       .  A
C1669      C1680   1.424       .  A
C1670      C1678   1.381       .  A
C1670      C1681   1.408       .  A
C1671      C1672   1.376       .  A
C1671      H1683   1.082       .  S
C1672      H1684   1.079       .  S
C1673      C1674   1.377       .  A
C1673      H1685   1.081       .  S
C1674      H1686   1.083       .  S
C1675      C1676   1.374       .  A
C1675      H1687   1.082       .  S
C1676      H1688   1.081       .  S
C1677      C1678   1.372       .  A
C1677      H1689   1.079       .  S
C1678      H1690   1.083       .  S
C1679      C1905   1.491       .  S
C1680      C1816   1.500       .  S
C1681      C1919   1.488       .  S
C1682      C1844   1.498       .  S
N1693      C1698   1.352       .  A
N1693      C1697   1.354       .  A
N1693      H1725   1.043       .  S
N1694      C1701   1.350       .  A
N1694      C1702   1.349       .  A
N1695      C1700   1.354       .  A
N1695      C1699   1.354       .  A
N1695      H1726   1.043       .  S
N1696      C1703   1.352       .  A
N1696      C1704   1.353       .  A
C1697      C1705   1.390       .  A
C1697      C1713   1.420       .  A
C1698      C1714   1.410       .  A
C1698      C1706   1.384       .  A
C1699      C1707   1.382       .  A
C1699      C1716   1.410       .  A
C1700      C1715   1.424   1_554  A
C1700      C1708   1.391       .  A
C1701      C1713   1.416   1_554  A
C1701      C1709   1.390       .  A
C1702      C1716   1.405       .  A
C1702      C1710   1.383       .  A
C1703      C1711   1.382       .  A
C1703      C1714   1.411       .  A
C1704      C1712   1.391       .  A
C1704      C1715   1.424       .  A
C1705      C1706   1.378       .  A
C1705      H1717   1.081       .  S
C1706      H1718   1.082       .  S
C1707      C1708   1.378       .  A
C1707      H1719   1.082       .  S
C1708      H1720   1.079       .  S
C1709      C1710   1.375       .  A
C1709      H1721   1.081       .  S
C1710      H1722   1.082       .  S
C1711      C1712   1.376       .  A
C1711      H1723   1.083       .  S
C1712      H1724   1.080       .  S
C1713      C1830   1.494       .  S
C1714      C1877   1.493       .  S
C1715      C1856   1.505       .  S
C1716      C1888   1.487       .  S
N1727      C1732   1.358       .  A
N1727      C1731   1.354       .  A
N1727      H1759   1.042       .  S
N1728      C1735   1.350       .  A
N1728      C1736   1.353       .  A
N1729      C1734   1.353       .  A
N1729      C1733   1.354       .  A
N1729      H1760   1.043       .  S
N1730      C1737   1.352       .  A
N1730      C1738   1.351       .  A
C1731      C1739   1.382       .  A
C1731      C1747   1.413       .  A
C1732      C1748   1.428       .  A
C1732      C1740   1.392       .  A
C1733      C1741   1.390       .  A
C1733      C1750   1.421       .  A
C1734      C1749   1.411       .  A
C1734      C1742   1.384       .  A
C1735      C1747   1.407       .  A
C1735      C1743   1.382       .  A
C1736      C1750   1.421       .  A
C1736      C1744   1.391       .  A
C1737      C1745   1.390       .  A
C1737      C1748   1.420       .  A
C1738      C1746   1.383       .  A
C1738      C1749   1.409       .  A
C1739      C1740   1.377       .  A
C1739      H1751   1.082       .  S
C1740      H1752   1.079       .  S
C1741      C1742   1.378       .  A
C1741      H1753   1.081       .  S
C1742      H1754   1.082       .  S
C1743      C1744   1.374       .  A
C1743      H1755   1.083       .  S
C1744      H1756   1.080       .  S
C1745      C1746   1.375       .  A
C1745      H1757   1.081       .  S
C1746      H1758   1.083       .  S
C1747      C1891   1.490       .  S
C1748      C1872   1.506       .  S
C1749      C1874   1.491       .  S
C1750      C1842   1.500       .  S
O1761     Ni1769   1.923       .  S
O1761      C1771   1.281       .  A
O1762     Ni1769   1.912       .  S
O1762      C1772   1.279       .  A
O1763     Ni1769   1.915       .  S
O1763      C1773   1.281       .  A
O1764     Ni1769   1.919       .  S
O1764      C1774   1.282       .  A
O1765     Ni1770   1.911       .  S
O1765      C1774   1.279   1_556  A
O1766     Ni1770   1.916       .  S
O1766      C1773   1.281   1_556  A
O1767     Ni1770   1.918       .  S
O1767      C1772   1.283   1_556  A
O1768     Ni1770   1.917       .  S
O1768      C1771   1.281   1_556  A
Ni1769    Ni1770   2.383   1_554  S
O1775     Ni1783   1.915       .  S
O1775      C1785   1.281       .  A
O1776     Ni1783   1.923       .  S
O1776      C1786   1.283       .  A
O1777     Ni1783   1.918       .  S
O1777      C1787   1.280       .  A
O1778     Ni1783   1.909       .  S
O1778      C1788   1.280       .  A
O1779     Ni1784   1.923       .  S
O1779      C1788   1.282       .  A
O1780     Ni1784   1.918       .  S
O1780      C1787   1.282       .  A
O1781     Ni1784   1.918       .  S
O1781      C1786   1.281       .  A
O1782     Ni1784   1.925       .  S
O1782      C1785   1.282       .  A
Ni1783    Ni1784   2.383       .  S
O1789     Ni1797   1.920       .  S
O1789      C1799   1.281   1_554  A
O1790     Ni1797   1.914       .  S
O1790      C1800   1.281   1_554  A
O1791     Ni1797   1.927       .  S
O1791      C1801   1.283       .  A
O1792     Ni1797   1.922       .  S
O1792      C1802   1.282   1_554  A
O1793     Ni1798   1.926       .  S
O1793      C1802   1.283       .  A
O1794     Ni1798   1.917       .  S
O1794      C1801   1.281   1_556  A
O1795     Ni1798   1.916       .  S
O1795      C1800   1.280       .  A
O1796     Ni1798   1.908       .  S
O1796      C1799   1.279       .  A
Ni1797    Ni1798   2.383   1_554  S
O1803     Ni1811   1.928       .  S
O1803      C1813   1.283       .  A
O1804     Ni1811   1.924       .  S
O1804      C1814   1.282       .  A
O1805     Ni1811   1.914       .  S
O1805      C1815   1.280       .  A
O1806     Ni1811   1.909       .  S
O1806      C1816   1.278       .  A
O1807     Ni1812   1.920       .  S
O1807      C1816   1.282       .  A
O1808     Ni1812   1.915       .  S
O1808      C1815   1.280       .  A
O1809     Ni1812   1.923       .  S
O1809      C1814   1.283       .  A
O1810     Ni1812   1.914       .  S
O1810      C1813   1.280       .  A
Ni1811    Ni1812   2.382       .  S
O1817     Ni1825   1.907       .  S
O1817      C1827   1.279       .  A
O1818     Ni1825   1.916       .  S
O1818      C1828   1.280       .  A
O1819     Ni1825   1.922       .  S
O1819      C1829   1.282       .  A
O1820     Ni1825   1.912       .  S
O1820      C1830   1.280       .  A
O1821     Ni1826   1.918       .  S
O1821      C1830   1.282   1_554  A
O1822     Ni1826   1.915       .  S
O1822      C1829   1.280   1_554  A
O1823     Ni1826   1.916       .  S
O1823      C1828   1.282   1_554  A
O1824     Ni1826   1.920       .  S
O1824      C1827   1.282   1_554  A
Ni1825    Ni1826   2.382   1_556  S
O1831     Ni1839   1.930       .  S
O1831      C1841   1.282       .  A
O1832     Ni1839   1.917       .  S
O1832      C1842   1.281       .  A
O1833     Ni1839   1.920       .  S
O1833      C1843   1.282       .  A
O1834     Ni1839   1.925       .  S
O1834      C1844   1.284       .  A
O1835     Ni1840   1.907       .  S
O1835      C1844   1.278       .  A
O1836     Ni1840   1.912       .  S
O1836      C1843   1.279       .  A
O1837     Ni1840   1.920       .  S
O1837      C1842   1.282       .  A
O1838     Ni1840   1.914       .  S
O1838      C1841   1.281       .  A
Ni1839    Ni1840   2.382       .  S
O1845     Ni1853   1.917       .  S
O1845      C1855   1.280       .  A
O1846     Ni1853   1.916       .  S
O1846      C1856   1.280       .  A
O1847     Ni1853   1.922       .  S
O1847      C1857   1.282       .  A
O1848     Ni1853   1.916       .  S
O1848      C1858   1.281       .  A
O1849     Ni1854   1.917       .  S
O1849      C1858   1.281   1_554  A
O1850     Ni1854   1.909       .  S
O1850      C1857   1.279   1_554  A
O1851     Ni1854   1.926       .  S
O1851      C1856   1.284   1_554  A
O1852     Ni1854   1.918       .  S
O1852      C1855   1.281   1_554  A
Ni1853    Ni1854   2.383   1_556  S
O1859     Ni1867   1.924       .  S
O1859      C1869   1.283       .  A
O1860     Ni1867   1.919       .  S
O1860      C1870   1.282       .  A
O1861     Ni1867   1.928       .  S
O1861      C1871   1.282       .  A
O1862     Ni1867   1.924       .  S
O1862      C1872   1.283       .  A
O1863     Ni1868   1.919       .  S
O1863      C1872   1.280       .  A
O1864     Ni1868   1.906       .  S
O1864      C1871   1.279       .  A
O1865     Ni1868   1.914       .  S
O1865      C1870   1.281       .  A
O1866     Ni1868   1.904       .  S
O1866      C1869   1.278       .  A
Ni1867    Ni1868   2.383       .  S
C1873      C1874   1.402       .  A
C1873      C1878   1.401       .  A
C1873      H1880   1.083       .  S
C1874      C1875   1.414       .  A
C1875      C1876   1.402       .  A
C1875      N1882   1.432       .  S
C1876      C1877   1.404       .  A
C1876      H1881   1.084       .  S
C1877      C1878   1.414       .  A
C1878      N1879   1.432       .  S
N1879      H1883   1.044       .  S
N1879      H1884   1.045       .  S
N1882      H1885   1.046       .  S
N1882      H1886   1.044       .  S
C1887      C1888   1.401       .  A
C1887      C1892   1.403       .  A
C1887      H1894   1.084       .  S
C1888      C1889   1.412       .  A
C1889      C1890   1.402       .  A
C1889      N1896   1.432       .  S
C1890      C1891   1.404       .  A
C1890      H1895   1.084       .  S
C1891      C1892   1.415       .  A
C1892      N1893   1.435       .  S
N1893      H1897   1.046       .  S
N1893      H1898   1.043       .  S
N1896      H1899   1.045       .  S
N1896      H1900   1.046       .  S
C1901      C1902   1.405       .  A
C1901      C1906   1.406       .  A
C1901      H1908   1.083       .  S
C1902      C1903   1.407       .  A
C1903      C1904   1.403       .  A
C1903      N1910   1.427       .  S
C1904      C1905   1.399       .  A
C1904      H1909   1.084       .  S
C1905      C1906   1.415       .  A
C1906      N1907   1.432       .  S
N1907      H1911   1.045       .  S
N1907      H1912   1.045       .  S
N1910      H1913   1.042       .  S
N1910      H1914   1.043       .  S
C1915      C1916   1.402       .  A
C1915      C1920   1.399       .  A
C1915      H1922   1.084       .  S
C1916      C1917   1.414       .  A
C1917      C1918   1.402       .  A
C1917      N1924   1.432       .  S
C1918      C1919   1.403       .  A
C1918      H1923   1.084       .  S
C1919      C1920   1.411       .  A
C1920      N1921   1.430       .  S
N1921      H1925   1.045       .  S
N1921      H1926   1.046       .  S
N1924      H1927   1.046       .  S
N1924      H1928   1.045       .  S
C1929      C1930   1.403       .  A
C1929      C1934   1.406       .  A
C1929      H1936   1.083       .  S
C1930      C1931   1.414       .  A
C1931      C1932   1.400       .  A
C1931      N1938   1.433       .  S
C1932      C1933   1.404       .  A
C1932      H1937   1.084       .  S
C1933      C1934   1.412       .  A
C1934      N1935   1.438       .  S
N1935      H1939   1.044       .  S
N1935      H1940   1.042       .  S
N1938      H1941   1.044       .  S
N1938      H1942   1.045       .  S
C1943      C1944   1.406       .  A
C1943      C1948   1.404       .  A
C1943      H1950   1.084       .  S
C1944      C1945   1.412       .  A
C1945      C1946   1.406       .  A
C1945      N1952   1.432       .  S
C1946      C1947   1.405       .  A
C1946      H1951   1.084       .  S
C1947      C1948   1.414       .  A
C1948      N1949   1.433       .  S
N1949      H1953   1.045       .  S
N1949      H1954   1.042       .  S
N1952      H1955   1.046       .  S
N1952      H1956   1.045       .  S
C1957      C1958   1.403       .  A
C1957      C1962   1.401       .  A
C1957      H1964   1.084       .  S
C1958      C1959   1.412       .  A
C1959      C1960   1.400       .  A
C1959      N1966   1.430       .  S
C1960      C1961   1.403       .  A
C1960      H1965   1.084       .  S
C1961      C1962   1.415       .  A
C1962      N1963   1.433       .  S
N1963      H1967   1.043       .  S
N1963      H1968   1.046       .  S
N1966      H1969   1.045       .  S
N1966      H1970   1.044       .  S
C1971      C1972   1.402       .  A
C1971      C1976   1.402       .  A
C1971      H1978   1.084       .  S
C1972      C1973   1.411       .  A
C1973      C1974   1.405       .  A
C1973      N1980   1.432       .  S
C1974      C1975   1.405       .  A
C1974      H1979   1.084       .  S
C1975      C1976   1.411       .  A
C1976      N1977   1.431       .  S
N1977      H1981   1.045       .  S
N1977      H1982   1.042       .  S
N1980      H1983   1.046       .  S
N1980      H1984   1.046       .  S
