geometry optimzed in LAMMPS
_audit_creation_date              2020-11-30 
_audit_creation_method            'lammps2cif' 
_symmetry_space_group_name_H-M    'P1' 
_symmetry_Int_Tables_number       1 
_symmetry_cell_setting            triclinic 
loop_ 
_symmetry_equiv_pos_as_xyz 
  x,y,z 
_cell_length_a                    35.31815153 
_cell_length_b                    62.277831150590885 
_cell_length_c                    137.16279165549523 
_cell_angle_alpha                 90.03823470362121 
_cell_angle_beta                  90.0154281538244 
_cell_angle_gamma                 90.0517886394998 
loop_ 
_atom_site_label 
_atom_site_type_symbol 
_atom_site_fract_x 
_atom_site_fract_y 
_atom_site_fract_z 
_atom_site_charge 
O1          O  0.14147318  0.51507499  0.33478588    -0.81100
O2          O  0.10627420  0.50597872  0.29106853    -0.65800
O3          O  0.11834797  0.49259905  0.31822063    -1.12400
C4          C  0.24854079  0.48999344  0.30913116     1.05800
O5          O  0.13997801  0.47714738  0.28863454    -0.79000
O6          O  0.18216259  0.45428057  0.30080543    -0.66600
Ni7        Ni  0.09463672  0.50915893  0.32814057     1.34900
C8          C  0.17809279  0.44830684  0.30954748     0.84500
O9          O  0.05559890  0.50068296  0.30604960    -0.79600
O10         O  0.04617274  0.50426969  0.32227243    -0.89800
C11         C  0.12282438  0.49324591  0.28520793     0.84100
O12         O  0.09649986  0.53682247  0.32219429    -0.68000
O13         O  0.23631729  0.48526149  0.30063807    -0.87300
C14         C  0.10236098  0.54331500  0.31356210     0.84900
C15         C  0.03403729  0.50247138  0.31353826     1.06500
H16         H  0.17401835  0.51357996  0.30335959     0.38300
O17         O  0.16465839  0.49919139  0.30443994    -1.10000
O18         O  0.17305390  0.46142750  0.31654378    -0.66600
Ni19       Ni  0.17273524  0.49248217  0.31777016     1.26300
O20         O  0.11128299  0.53082536  0.30658236    -0.66900
O21         O  0.22714865  0.49309147  0.31654314    -0.79200
C22         C  0.16398490  0.50042824  0.33756191     0.84300
O23         O  0.17782701  0.48733064  0.33145072    -0.66300
Ni24       Ni  0.18750008  0.48151216  0.29482587     1.27400
Ni25       Ni  0.11021492  0.50001536  0.30486892     1.26100
H26         H  0.10957060  0.47803246  0.31907073     0.38800
O27         O  0.63533236  0.51322339  0.33518837    -0.81100
O28         O  0.60606602  0.50465422  0.29108482    -0.65800
O29         O  0.61872151  0.49054755  0.31818487    -1.12400
C30         C  0.74916444  0.49423226  0.30973823     1.05800
O31         O  0.64397341  0.47752678  0.28813307    -0.79000
O32         O  0.68457415  0.45578982  0.30099934    -0.66600
Ni33       Ni  0.59081739  0.50453010  0.32820367     1.34900
C34         C  0.68273358  0.44974336  0.30979248     0.84500
O35         O  0.55548582  0.49681538  0.30578955    -0.79600
O36         O  0.54411978  0.49711669  0.32199426    -0.89800
C37         C  0.62269981  0.49235663  0.28500996     0.84100
O38         O  0.58834526  0.53241110  0.32264466    -0.68000
O39         O  0.73789868  0.48800502  0.30134074    -0.87300
C40         C  0.59624387  0.54018688  0.31435684     0.84900
C41         C  0.53308071  0.49646701  0.31314399     1.06500
H42         H  0.67186712  0.51463115  0.30347273     0.38300
O43         O  0.66443734  0.49989688  0.30458214    -1.10000
O44         O  0.67893220  0.46289339  0.31682219    -0.66600
Ni45       Ni  0.67295739  0.49374186  0.31798885     1.26300
O46         O  0.60771595  0.52892324  0.30718111    -0.66900
O47         O  0.72693408  0.49751837  0.31695566    -0.79200
C48         C  0.66112133  0.50043130  0.33789440     0.84300
O49         O  0.67855089  0.48894781  0.33171943    -0.66300
Ni50       Ni  0.68991974  0.48316885  0.29505317     1.27400
Ni51       Ni  0.61019329  0.49832523  0.30487148     1.26100
H52         H  0.61268000  0.47548201  0.31872898     0.38800
O53         O  0.23413979  0.51832875  0.41256359    -0.81100
O54         O  0.26785809  0.50392850  0.45650684    -0.65800
O55         O  0.25503253  0.49438384  0.42900513    -1.12400
C56         C  0.12507600  0.49136959  0.43793068     1.05800
O57         O  0.23270344  0.47540978  0.45854999    -0.79000
O58         O  0.19262356  0.45433804  0.44515048    -0.66600
Ni59       Ni  0.27995654  0.51144480  0.41945660     1.34900
C60         C  0.19702916  0.45013591  0.43618849     0.84500
O61         O  0.31820492  0.49952917  0.44143565    -0.79600
O62         O  0.32773096  0.50551659  0.42538052    -0.89800
C63         C  0.25099062  0.49093115  0.46219676     0.84100
O64         O  0.27765742  0.53840962  0.42605774    -0.68000
O65         O  0.13717906  0.48500309  0.44620130    -0.87300
C66         C  0.27185449  0.54396951  0.43484182     0.84900
C67         C  0.33974229  0.50219425  0.43401105     1.06500
H68         H  0.20052613  0.51402616  0.44467851     0.38300
O69         O  0.20920273  0.49974471  0.44307096    -1.10000
O70         O  0.19984756  0.46449265  0.42970099    -0.66600
Ni71       Ni  0.20071505  0.49532213  0.42952415     1.26300
O72         O  0.26395646  0.53069014  0.44160230    -0.66900
O73         O  0.14651360  0.49630965  0.43076315    -0.79200
C74         C  0.21050368  0.50429063  0.40974721     0.84300
O75         O  0.19488545  0.49180356  0.41579830    -0.66300
Ni76       Ni  0.18576575  0.48056503  0.45207075     1.27400
Ni77       Ni  0.26359207  0.49973241  0.44257495     1.26100
H78         H  0.26291940  0.47978354  0.42776384     0.38800
O79         O  0.73835378  0.51582550  0.41226863    -0.81100
O80         O  0.76838784  0.50201477  0.45718832    -0.65800
O81         O  0.75566064  0.49340553  0.42964530    -1.12400
C82         C  0.62448965  0.49735155  0.43792487     1.05800
O83         O  0.72620498  0.47675001  0.46005768    -0.79000
O84         O  0.68364592  0.45735332  0.44651197    -0.66600
Ni85       Ni  0.78160334  0.51159553  0.42059896     1.34900
C86         C  0.69021829  0.45158639  0.43781344     0.84500
O87         O  0.81781646  0.49437973  0.44234837    -0.79600
O88         O  0.82826611  0.50890536  0.42766507    -0.89800
C89         C  0.75067583  0.49002670  0.46314968     0.84100
O90         O  0.77065437  0.53813937  0.42677533    -0.68000
O91         O  0.63485980  0.49155568  0.44644037    -0.87300
C92         C  0.77041712  0.54323948  0.43571311     0.84900
C93         C  0.84009893  0.50037504  0.43553215     1.06500
H94         H  0.70343576  0.51614658  0.44474128     0.38300
O95         O  0.70968497  0.50127519  0.44353951    -1.10000
O96         O  0.69757071  0.46485534  0.43102833    -0.66600
Ni97       Ni  0.70164442  0.49578747  0.42999857     1.26300
O98         O  0.76951004  0.52931663  0.44253401    -0.66900
O99         O  0.64753518  0.49924664  0.43080739    -0.79200
C100        C  0.71284532  0.50240152  0.40997503     0.84300
O101        O  0.69662915  0.49085413  0.41632065    -0.66300
Ni102      Ni  0.68173392  0.48464580  0.45281107     1.27400
Ni103      Ni  0.76373422  0.49823862  0.44329165     1.26100
H104        H  0.76273729  0.47877471  0.42817398     0.38800
O105        O  0.48510220  0.72437711  0.33615487    -0.81100
O106        O  0.51988522  0.73270803  0.29226864    -0.65800
O107        O  0.50463884  0.74613286  0.31914298    -1.12400
C108        C  0.37474172  0.74359444  0.30984057     1.05800
O109        O  0.48174710  0.75959288  0.28885081    -0.79000
O110        O  0.43746030  0.78101589  0.30121909    -0.66600
Ni111      Ni  0.53082036  0.73207040  0.32933270     1.34900
C112        C  0.44238524  0.78742859  0.30989647     0.84500
O113        O  0.56868674  0.74010791  0.30716183    -0.79600
O114        O  0.57821599  0.73931982  0.32338225    -0.89800
C115        C  0.50447207  0.74509518  0.28606971     0.84100
O116        O  0.53300703  0.70402382  0.32368958    -0.68000
O117        O  0.38665085  0.74770696  0.30124887    -0.87300
C118        C  0.52706493  0.69659497  0.31519504     0.84900
C119        C  0.59042690  0.74024832  0.31463631     1.06500
H120        H  0.45264315  0.72233959  0.30430899     0.38300
O121        O  0.45997712  0.73714152  0.30527542    -1.10000
O122        O  0.44778113  0.77472114  0.31699436    -0.66600
Ni123      Ni  0.45055207  0.74402074  0.31856882     1.26300
O124        O  0.51684661  0.70812259  0.30800134    -0.66900
O125        O  0.39632905  0.74170221  0.31728844    -0.79200
C126        C  0.45990715  0.73794340  0.33855982     0.84300
O127        O  0.44434428  0.74972204  0.33217828    -0.66300
Ni128      Ni  0.43508174  0.75325394  0.29538974     1.27400
Ni129      Ni  0.51422625  0.73868819  0.30591774     1.26100
H130        H  0.51146153  0.76100647  0.31979389     0.38800
O131        O  0.98363786  0.72711452  0.33488602    -0.81100
O132        O  0.01755974  0.73335974  0.29128902    -0.65800
O133        O  0.00464700  0.74880090  0.31805935    -1.12400
C134        C  0.87475095  0.74991047  0.30914427     1.05800
O135        O  0.98302728  0.76161646  0.28809092    -0.79000
O136        O  0.94372900  0.78549222  0.30048414    -0.66600
Ni137      Ni  0.02995802  0.73370500  0.32818931     1.34900
C138        C  0.94500891  0.79148458  0.30928920     0.84500
O139        O  0.06774059  0.74067260  0.30598625    -0.79600
O140        O  0.07793220  0.73942150  0.32222448    -0.89800
C141        C  0.00120015  0.74537877  0.28513037     0.84100
O142        O  0.03037475  0.70553565  0.32268259    -0.68000
O143        O  0.88682137  0.75530043  0.30070759    -0.87300
C144        C  0.02362399  0.69817191  0.31423391     0.84900
C145        C  0.08966935  0.74021311  0.31342831     1.06500
H146        H  0.94982453  0.72607248  0.30325286     0.38300
O147        O  0.95870717  0.74056267  0.30433103    -1.10000
O148        O  0.94726872  0.77825477  0.31628407    -0.66600
Ni149      Ni  0.95023166  0.74751112  0.31762609     1.26300
O150        O  0.01312884  0.70990090  0.30713496    -0.66900
O151        O  0.89615394  0.74586465  0.31643195    -0.79200
C152        C  0.96033586  0.74151119  0.33749091     0.84300
O153        O  0.94466561  0.75334798  0.33118722    -0.66300
Ni154      Ni  0.93578869  0.75814735  0.29466033     1.27400
Ni155      Ni  0.01314505  0.74050361  0.30486674     1.26100
H156        H  0.01234130  0.76362594  0.31863376     0.38800
O157        O  0.38922126  0.72489653  0.41403636    -0.81100
O158        O  0.36254680  0.73617524  0.45822792    -0.65800
O159        O  0.37241483  0.74822562  0.43085286    -1.12400
C160        C  0.50425182  0.74576663  0.43828474     1.05800
O161        O  0.40215766  0.76281159  0.46048085    -0.79000
O162        O  0.44461570  0.78371117  0.44745865    -0.66600
Ni163      Ni  0.34476953  0.73318779  0.42117102     1.34900
C164        C  0.43831858  0.78976367  0.43879873     0.84500
O165        O  0.31026649  0.74321148  0.44366619    -0.79600
O166        O  0.29854601  0.74067732  0.42750344    -0.89800
C167        C  0.38200776  0.74787637  0.46398070     0.84100
O168        O  0.34330748  0.70561235  0.42720416    -0.68000
O169        O  0.49432200  0.75045960  0.44697731    -0.87300
C170        C  0.34978086  0.69874244  0.43575342     0.84900
C171        C  0.28763112  0.74242215  0.43633280     1.06500
H172        H  0.42703970  0.72501335  0.44517786     0.38300
O173        O  0.41979539  0.73980549  0.44417283    -1.10000
O174        O  0.43049860  0.77685103  0.43189773    -0.66600
Ni175      Ni  0.42661992  0.74596104  0.43069317     1.26300
O176        O  0.36133081  0.71072455  0.44268389    -0.66900
O177        O  0.48096779  0.74338657  0.43121905    -0.79200
C178        C  0.41320642  0.73847011  0.41096440     0.84300
O179        O  0.43021449  0.75072584  0.41692151    -0.66300
Ni180      Ni  0.44740400  0.75626523  0.45348075     1.27400
Ni181      Ni  0.36519071  0.74153223  0.44432317     1.26100
H182        H  0.36563718  0.76311777  0.43004741     0.38800
O183        O  0.89513058  0.72481887  0.41259457    -0.81100
O184        O  0.85774966  0.73525786  0.45582547    -0.65800
O185        O  0.87321742  0.74787809  0.42888286    -1.12400
C186        C  0.00262039  0.74833897  0.43855024     1.05800
O187        O  0.89368771  0.76318132  0.45899591    -0.79000
O188        O  0.93714718  0.78493494  0.44658027    -0.66600
Ni189      Ni  0.84839074  0.73237445  0.41884191     1.34900
C190        C  0.93372041  0.79087746  0.43779934     0.84500
O191        O  0.80926130  0.74190732  0.44070155    -0.79600
O192        O  0.80034470  0.73932667  0.42441336    -0.89800
C193        C  0.87263513  0.74806270  0.46193425     0.84100
O194        O  0.84571290  0.70471209  0.42483540    -0.68000
O195        O  0.98995198  0.75300779  0.44700960    -0.87300
C196        C  0.85078084  0.69785042  0.43345282     0.84900
C197        C  0.78806726  0.74121940  0.43312550     1.06500
H198        H  0.92591279  0.72569093  0.44408872     0.38300
O199        O  0.91784126  0.74029017  0.44293094    -1.10000
O200        O  0.92931599  0.77770542  0.43079824    -0.66600
Ni201      Ni  0.92744085  0.74673406  0.42959206     1.26300
O202        O  0.86176620  0.70995315  0.44040752    -0.66900
O203        O  0.98167570  0.74534756  0.43104739    -0.79200
C204        C  0.91826275  0.73912459  0.40975934     0.84300
O205        O  0.93362785  0.75161910  0.41591153    -0.66300
Ni206      Ni  0.94103499  0.75762177  0.45269229     1.27400
Ni207      Ni  0.86358482  0.74086307  0.44213685     1.26100
H208        H  0.86567547  0.76263583  0.42803166     0.38800
O209        O  0.22930443  0.22228741  0.33593242    -0.81100
O210        O  0.26413084  0.23051286  0.29167743    -0.65800
O211        O  0.25085262  0.24402395  0.31885005    -1.12400
C212        C  0.12068715  0.24409555  0.30973565     1.05800
O213        O  0.22837942  0.25829722  0.28903994    -0.79000
O214        O  0.18499620  0.28016767  0.30105136    -0.66600
Ni215      Ni  0.27544272  0.22801158  0.32883901     1.34900
C216        C  0.18919520  0.28674880  0.30969323     0.84500
O217        O  0.31387448  0.23777599  0.30662413    -0.79600
O218        O  0.32359426  0.23289313  0.32275422    -0.89800
C219        C  0.24731775  0.24280633  0.28567991     0.84100
O220        O  0.27317565  0.20007243  0.32306262    -0.68000
O221        O  0.13252501  0.24809262  0.30112700    -0.87300
C222        C  0.26879817  0.19347983  0.31436780     0.84900
C223        C  0.33550997  0.23587252  0.31407113     1.06500
H224        H  0.19695449  0.22133791  0.30409654     0.38300
O225        O  0.20516488  0.23599471  0.30505358    -1.10000
O226        O  0.19480003  0.27408498  0.31682684    -0.66600
Ni227      Ni  0.19659258  0.24312835  0.31834218     1.26300
O228        O  0.26103227  0.20593879  0.30729438    -0.66900
O229        O  0.14235413  0.24173357  0.31713580    -0.79200
C230        C  0.20483542  0.23632128  0.33831794     0.84300
O231        O  0.19087140  0.24875575  0.33195045    -0.66300
Ni232      Ni  0.18117304  0.25269166  0.29527733     1.27400
Ni233      Ni  0.25947652  0.23668042  0.30548095     1.26100
H234        H  0.25881463  0.25873552  0.31968889     0.38800
O235        O  0.72848655  0.22239500  0.33567028    -0.81100
O236        O  0.76722897  0.23482802  0.29239835    -0.65800
O237        O  0.75029145  0.24595533  0.31944781    -1.12400
C238        C  0.62063167  0.24483106  0.30965639     1.05800
O239        O  0.72846469  0.26130535  0.28882206    -0.79000
O240        O  0.68548825  0.28231597  0.30155493    -0.66600
Ni241      Ni  0.77518644  0.22974634  0.32931874     1.34900
C242        C  0.68883794  0.28826805  0.31033706     0.84500
O243        O  0.81471894  0.24110536  0.30762621    -0.79600
O244        O  0.82363670  0.23624765  0.32376411    -0.89800
C245        C  0.75202326  0.24714204  0.28615474     0.84100
O246        O  0.77591455  0.20234367  0.32304016    -0.68000
O247        O  0.63321202  0.25010316  0.30126751    -0.87300
C248        C  0.77130402  0.19635038  0.31426982     0.84900
C249        C  0.83604978  0.23916739  0.31512649     1.06500
H250        H  0.69891816  0.22364174  0.30398923     0.38300
O251        O  0.70624253  0.23835494  0.30520325    -1.10000
O252        O  0.69317493  0.27518327  0.31738606    -0.66600
Ni253      Ni  0.69609075  0.24418366  0.31859040     1.26300
O254        O  0.76245159  0.20912781  0.30742992    -0.66900
O255        O  0.64195200  0.24179958  0.31707613    -0.79200
C256        C  0.70502834  0.23650865  0.33850664     0.84300
O257        O  0.68932057  0.24876912  0.33231594    -0.66300
Ni258      Ni  0.68186261  0.25509124  0.29543743     1.27400
Ni259      Ni  0.76042433  0.23982115  0.30609971     1.26100
H260        H  0.75739018  0.26071100  0.32055365     0.38800
O261        O  0.12427907  0.22481668  0.41355580    -0.81100
O262        O  0.10303962  0.23734039  0.45793750    -0.65800
O263        O  0.10755657  0.24826608  0.43046246    -1.12400
C264        C  0.24012004  0.25227761  0.43664941     1.05800
O265        O  0.13913185  0.26566455  0.45968605    -0.79000
O266        O  0.17596782  0.28759992  0.44590140    -0.66600
Ni267      Ni  0.08021917  0.23129179  0.42132208     1.34900
C268        C  0.16850936  0.29247232  0.43714996     0.84500
O269        O  0.04837533  0.24264751  0.44400709    -0.79600
O270        O  0.03409000  0.23690296  0.42819260    -0.89800
C271        C  0.12147454  0.25003035  0.46343074     0.84100
O272        O  0.08510860  0.20416135  0.42759446    -0.68000
O273        O  0.23083408  0.25718518  0.44536122    -0.87300
C274        C  0.09540118  0.19817484  0.43602723     0.84900
C275        C  0.02458213  0.24093473  0.43698058     1.06500
H276        H  0.16712338  0.22814484  0.44464333     0.38300
O277        O  0.15779509  0.24249350  0.44346749    -1.10000
O278        O  0.16203773  0.27862769  0.43058200    -0.66600
Ni279      Ni  0.16178288  0.24785510  0.42987260     1.26300
O280        O  0.10405481  0.21134644  0.44276130    -0.66900
O281        O  0.21633857  0.24762348  0.42993203    -0.79200
C282        C  0.14721298  0.23883732  0.41032824     0.84300
O283        O  0.16289971  0.25200282  0.41609740    -0.66300
Ni284      Ni  0.18409728  0.26092146  0.45227220     1.27400
Ni285      Ni  0.10330456  0.24225136  0.44406299     1.26100
H286        H  0.09891131  0.26283362  0.42951849     0.38800
O287        O  0.63685012  0.22616389  0.41323209    -0.81100
O288        O  0.58813325  0.24212939  0.45615471    -0.65800
O289        O  0.61229816  0.24982629  0.42913691    -1.12400
C290        C  0.73949283  0.24829837  0.44112032     1.05800
O291        O  0.62782434  0.26810627  0.45938245    -0.79000
O292        O  0.67649395  0.28670609  0.44735875    -0.66600
Ni293      Ni  0.58909128  0.23290594  0.41925448     1.34900
C294        C  0.67227610  0.29191852  0.43849147     0.84500
O295        O  0.54531646  0.24932640  0.43997048    -0.79600
O296        O  0.53936677  0.23866663  0.42443426    -0.89800
C297        C  0.60356682  0.25463500  0.46231405     0.84100
O298        O  0.59049659  0.20601993  0.42573751    -0.68000
O299        O  0.72502542  0.25250328  0.44941721    -0.87300
C300        C  0.59011103  0.20089111  0.43466932     0.84900
C301        C  0.52519628  0.24565263  0.43239861     1.06500
H302        H  0.65822331  0.22775282  0.44566736     0.38300
O303        O  0.65240123  0.24254982  0.44417657    -1.10000
O304        O  0.66798444  0.27836352  0.43170021    -0.66600
Ni305      Ni  0.66616018  0.24764912  0.43091736     1.26300
O306        O  0.59301535  0.21452397  0.44157118    -0.66900
O307        O  0.71997474  0.24592117  0.43332577    -0.79200
C308        C  0.66154607  0.24008166  0.41090926     0.84300
O309        O  0.67664000  0.25184898  0.41737197    -0.66300
Ni310      Ni  0.67555276  0.25978382  0.45404149     1.27400
Ni311      Ni  0.59860123  0.24546943  0.44242369     1.26100
H312        H  0.60596330  0.26451546  0.42757104     0.38800
O313        O  0.39660379  0.01350659  0.33610514    -0.81100
O314        O  0.36054221  0.00065056  0.29252475    -0.65800
O315        O  0.37665620  0.98991945  0.31968531    -1.12400
C316        C  0.50626655  0.99314970  0.31020813     1.05800
O317        O  0.39951958  0.97384605  0.28976958    -0.79000
O318        O  0.44476426  0.95412829  0.30240855    -0.66600
Ni319      Ni  0.35072983  0.00505220  0.32964218     1.34900
C320        C  0.44075817  0.94839782  0.31120583     0.84500
O321        O  0.31212300  0.99396043  0.30776478    -0.79600
O322        O  0.30319958  0.99721946  0.32399747    -0.89800
C323        C  0.37688620  0.98795791  0.28658458     0.84100
O324        O  0.34791695  0.03259076  0.32352537    -0.68000
O325        O  0.49453504  0.98781169  0.30173343    -0.87300
C326        C  0.35259373  0.03921111  0.31485112     0.84900
C327        C  0.29082049  0.99476802  0.31533048     1.06500
H328        H  0.42758463  0.01291080  0.30434333     0.38300
O329        O  0.42076578  0.99813935  0.30559832    -1.10000
O330        O  0.43489066  0.96168161  0.31806426    -0.66600
Ni331      Ni  0.43069517  0.99255005  0.31897947     1.26300
O332        O  0.36254209  0.02696940  0.30784233    -0.66900
O333        O  0.48461660  0.99553747  0.31759764    -0.79200
C334        C  0.42157978  0.00013486  0.33881735     0.84300
O335        O  0.43759499  0.98814554  0.33261380    -0.66300
Ni336      Ni  0.44613071  0.98126477  0.29604741     1.27400
Ni337      Ni  0.36652571  0.99608988  0.30633893     1.26100
H338        H  0.37026981  0.97500579  0.32064584     0.38800
O339        O  0.89817758  0.01961300  0.33479959    -0.81100
O340        O  0.86108303  0.00489758  0.29136381    -0.65800
O341        O  0.87645301  0.99493293  0.31863203    -1.12400
C342        C  0.00638477  0.99373558  0.30937066     1.05800
O343        O  0.89878562  0.97764004  0.28872388    -0.79000
O344        O  0.94121857  0.95690353  0.30162599    -0.66600
Ni345      Ni  0.85179089  0.01178566  0.32828097     1.34900
C346        C  0.93790994  0.95174346  0.31050863     0.84500
O347        O  0.81231162  0.99966583  0.30653547    -0.79600
O348        O  0.80358612  0.00494754  0.32264458    -0.89800
C349        C  0.87848690  0.99272070  0.28545888     0.84100
O350        O  0.85180116  0.03877525  0.32167281    -0.68000
O351        O  0.99440272  0.98845765  0.30091771    -0.87300
C352        C  0.85662218  0.04426540  0.31284968     0.84900
C353        C  0.79097500  0.00198244  0.31402209     1.06500
H354        H  0.92908809  0.01587550  0.30306576     0.38300
O355        O  0.92129665  0.00132410  0.30446840    -1.10000
O356        O  0.93312863  0.96538572  0.31729600    -0.66600
Ni357      Ni  0.93062213  0.99635731  0.31793658     1.26300
O358        O  0.86528886  0.03115846  0.30612206    -0.66900
O359        O  0.98474728  0.99790848  0.31659873    -0.79200
C360        C  0.92261070  0.00604496  0.33764773     0.84300
O361        O  0.93695188  0.99279482  0.33168170    -0.66300
Ni362      Ni  0.94571661  0.98358479  0.29508197     1.27400
Ni363      Ni  0.86682207  0.00038889  0.30516223     1.26100
H364        H  0.86904330  0.98027856  0.31987286     0.38800
O365        O  0.48465635  0.01431139  0.41349551    -0.81100
O366        O  0.52225395  0.00675772  0.45714302    -0.65800
O367        O  0.50758800  0.99387128  0.43027665    -1.12400
C368        C  0.37715678  0.99645892  0.43991838     1.05800
O369        O  0.48398323  0.97963947  0.45996546    -0.79000
O370        O  0.43332193  0.95981201  0.44846794    -0.66600
Ni371      Ni  0.53162129  0.00957531  0.42019777     1.34900
C372        C  0.44386955  0.95187904  0.44042755     0.84500
O373        O  0.57089429  0.00012303  0.44226212    -0.79600
O374        O  0.58022872  0.00552800  0.42617829    -0.89800
C375        C  0.50714141  0.99363744  0.46305430     0.84100
O376        O  0.52843696  0.03758261  0.42576692    -0.68000
O377        O  0.38909504  0.99516173  0.44867757    -0.87300
C378        C  0.52472519  0.04431331  0.43444890     0.84900
C379        C  0.59243227  0.00268275  0.43484925     1.06500
H380        H  0.45487474  0.01756612  0.44464859     0.38300
O381        O  0.46237566  0.00270831  0.44404659    -1.10000
O382        O  0.45452692  0.96382189  0.43344502    -0.66600
Ni383      Ni  0.45329734  0.99439345  0.43102017     1.26300
O384        O  0.51862333  0.03194240  0.44165468    -0.66900
O385        O  0.39874726  0.99532127  0.43241464    -0.79200
C386        C  0.46238451  0.99918248  0.41109713     0.84300
O387        O  0.44735693  0.98737246  0.41755514    -0.66300
Ni388      Ni  0.43702765  0.98773927  0.45412795     1.27400
Ni389      Ni  0.51661540  0.00129071  0.44349063     1.26100
H390        H  0.51581973  0.97918854  0.42945196     0.38800
O391        O  0.98931633  0.01908519  0.41367162    -0.81100
O392        O  0.02155571  0.00331116  0.45676388    -0.65800
O393        O  0.00687333  0.99353055  0.42949338    -1.12400
C394        C  0.87695515  0.99698538  0.43862511     1.05800
O395        O  0.98265442  0.97635511  0.45911124    -0.79000
O396        O  0.93818689  0.95742682  0.44619003    -0.66600
Ni397      Ni  0.03437123  0.00901662  0.41993157     1.34900
C398        C  0.94119041  0.95203189  0.43733185     0.84500
O399        O  0.07062299  0.99787264  0.44179785    -0.79600
O400        O  0.08119341  0.99997310  0.42561985    -0.89800
C401        C  0.00518340  0.99027543  0.46251188     0.84100
O402        O  0.03831885  0.03592788  0.42646768    -0.68000
O403        O  0.88855540  0.99087574  0.44699577    -0.87300
C404        C  0.03114542  0.04230837  0.43504791     0.84900
C405        C  0.09275772  0.99859949  0.43441424     1.06500
H406        H  0.95516072  0.01584401  0.44487837     0.38300
O407        O  0.96202437  0.00115453  0.44345592    -1.10000
O408        O  0.94692924  0.96558469  0.43052525    -0.66600
Ni409      Ni  0.95269484  0.99661327  0.42994984     1.26300
O410        O  0.01922323  0.03001299  0.44178069    -0.66900
O411        O  0.89870348  0.00005310  0.43127709    -0.79200
C412        C  0.96463655  0.00630812  0.41032146     0.84300
O413        O  0.94685787  0.99377300  0.41603684    -0.66300
Ni414      Ni  0.93643149  0.98411543  0.45279967     1.27400
Ni415      Ni  0.01618591  0.99921734  0.44293985     1.26100
H416        H  0.01281520  0.97865953  0.42843038     0.38800
O417        O  0.27338280  0.51202018  0.53856816    -0.81100
O418        O  0.30364285  0.50028535  0.58252937    -0.65800
O419        O  0.29105813  0.48871152  0.55532906    -1.12400
C420        C  0.16042261  0.49507729  0.56360250     1.05800
O421        O  0.26171773  0.47511534  0.58572523    -0.79000
O422        O  0.21628819  0.45561663  0.57274362    -0.66600
Ni423      Ni  0.31819921  0.50481093  0.54577225     1.34900
C424        C  0.22024895  0.44896894  0.56406849     0.84500
O425        O  0.35358025  0.49254386  0.56802330    -0.79600
O426        O  0.36525789  0.49879475  0.55212339    -0.89800
C427        C  0.28616477  0.48859099  0.58862852     0.84100
O428        O  0.31588835  0.53236566  0.55178984    -0.68000
O429        O  0.17075637  0.49065926  0.57229174    -0.87300
C430        C  0.31041885  0.53858187  0.56047780     0.84900
C431        C  0.37617355  0.49492862  0.56080743     1.06500
H432        H  0.23906937  0.51313170  0.56982685     0.38300
O433        O  0.24521430  0.49814286  0.56893182    -1.10000
O434        O  0.23011224  0.46114079  0.55704701    -0.66600
Ni435      Ni  0.23698469  0.49183829  0.55550636     1.26300
O436        O  0.30357575  0.52582341  0.56746769    -0.66900
O437        O  0.18304063  0.49591189  0.55632507    -0.79200
C438        C  0.24930085  0.49837216  0.53564136     0.84300
O439        O  0.23221258  0.48649622  0.54174560    -0.66300
Ni440      Ni  0.21724834  0.48325679  0.57862949     1.27400
Ni441      Ni  0.29921211  0.49515681  0.56880210     1.26100
H442        H  0.29726719  0.47376932  0.55431998     0.38800
O443        O  0.76775585  0.50943762  0.54003352    -0.81100
O444        O  0.80426488  0.50150192  0.58305419    -0.65800
O445        O  0.79223656  0.48773259  0.55609643    -1.12400
C446        C  0.66119235  0.48565295  0.56519035     1.05800
O447        O  0.76838682  0.47368630  0.58663109    -0.79000
O448        O  0.72415822  0.45081848  0.57406828    -0.66600
Ni449      Ni  0.81528542  0.50487083  0.54626366     1.34900
C450        C  0.73143557  0.44353533  0.56564332     0.84500
O451        O  0.85464129  0.49678887  0.56821452    -0.79600
O452        O  0.86410044  0.50139632  0.55206037    -0.89800
C453        C  0.78965949  0.48903635  0.58934722     0.84100
O454        O  0.81067940  0.53240659  0.55208563    -0.68000
O455        O  0.67341026  0.48289464  0.57384868    -0.87300
C456        C  0.80307127  0.53872411  0.56063134     0.84900
C457        C  0.87620934  0.49947168  0.56077954     1.06500
H458        H  0.73620081  0.50896783  0.57051678     0.38300
O459        O  0.74552625  0.49447384  0.56978622    -1.10000
O460        O  0.73919392  0.45593161  0.55851810    -0.66600
Ni461      Ni  0.73761280  0.48681491  0.55649530     1.26300
O462        O  0.79697430  0.52599903  0.56767640    -0.66900
O463        O  0.68279862  0.48676186  0.55767022    -0.79200
C464        C  0.74930777  0.49366442  0.53670752     0.84300
O465        O  0.73342709  0.48079937  0.54265578    -0.66300
Ni466      Ni  0.72159266  0.47858509  0.57982925     1.27400
Ni467      Ni  0.79993001  0.49540835  0.56938481     1.26100
H468        H  0.80170149  0.47330534  0.55522912     0.38800
O469        O  0.36821874  0.51775346  0.70964266    -0.81100
O470        O  0.32870691  0.50558449  0.66674253    -0.65800
O471        O  0.34771258  0.49348561  0.69356442    -1.12400
C472        C  0.47660486  0.50055705  0.68377891     1.05800
O473        O  0.37111511  0.48139267  0.66245686    -0.79000
O474        O  0.41893284  0.46142235  0.67492292    -0.66600
Ni475      Ni  0.32202369  0.50931321  0.70347881     1.34900
C476        C  0.41864831  0.45479889  0.68366153     0.84500
O477        O  0.28226315  0.49717109  0.68186428    -0.79600
O478        O  0.27386704  0.50212502  0.69800004    -0.89800
C479        C  0.34474616  0.49438042  0.66023272     0.84100
O480        O  0.32104865  0.53687984  0.69745546    -0.68000
O481        O  0.46463745  0.49612166  0.67521567    -0.87300
C482        C  0.32590486  0.54328585  0.68878381     0.84900
C483        C  0.26117403  0.49880203  0.68942887     1.06500
H484        H  0.39606663  0.51858157  0.67847198     0.38300
O485        O  0.39044206  0.50353536  0.67940244    -1.10000
O486        O  0.41012949  0.46670413  0.69092821    -0.66600
Ni487      Ni  0.40159157  0.49732816  0.69270355     1.26300
O488        O  0.33236660  0.53070783  0.68172151    -0.66900
O489        O  0.45503210  0.50210225  0.69122976    -0.79200
C490        C  0.39242267  0.50432611  0.71260498     0.84300
O491        O  0.40906759  0.49229485  0.70645990    -0.66300
Ni492      Ni  0.41684066  0.48921922  0.66926932     1.27400
Ni493      Ni  0.33650908  0.50010729  0.68028798     1.26100
H494        H  0.34228377  0.47845201  0.69460706     0.38800
O495        O  0.86709736  0.51898556  0.71042018    -0.81100
O496        O  0.83358851  0.50572118  0.66761195    -0.65800
O497        O  0.84475985  0.49504648  0.69478032    -1.12400
C498        C  0.97555092  0.49100182  0.68651832     1.05800
O499        O  0.86967803  0.47778975  0.66408030    -0.79000
O500        O  0.90732139  0.45503153  0.67816011    -0.66600
Ni501      Ni  0.82022230  0.51285026  0.70412165     1.34900
C502        C  0.90307110  0.44978200  0.68704796     0.84500
O503        O  0.78322944  0.50208981  0.68224117    -0.79600
O504        O  0.77202135  0.50755905  0.69824836    -0.89800
C505        C  0.84653296  0.49239695  0.66146175     0.84100
O506        O  0.82323060  0.53983232  0.69767480    -0.68000
O507        O  0.96347703  0.48519347  0.67813829    -0.87300
C508        C  0.83126338  0.54540865  0.68904439     0.84900
C509        C  0.76088866  0.50474905  0.68949121     1.06500
H510        H  0.90145747  0.51450781  0.67972274     0.38300
O511        O  0.89198460  0.50023102  0.68101970    -1.10000
O512        O  0.89919413  0.46372308  0.69376756    -0.66600
Ni513      Ni  0.89926163  0.49480487  0.69461715     1.26300
O514        O  0.83966932  0.53206419  0.68236965    -0.66900
O515        O  0.95379078  0.49525571  0.69372764    -0.79200
C516        C  0.88574141  0.50374167  0.71414299     0.84300
O517        O  0.90287582  0.49071324  0.70854962    -0.66300
Ni518      Ni  0.91541526  0.48186460  0.67169584     1.27400
Ni519      Ni  0.83774180  0.50113881  0.68132839     1.26100
H520        H  0.83578236  0.48059975  0.69591047     0.38800
O521        O  0.02563187  0.22743375  0.70855461    -0.81100
O522        O  0.05180031  0.24417740  0.66517201    -0.65800
O523        O  0.04427395  0.25193918  0.69276197    -1.12400
C524        C  0.91178208  0.25396273  0.68575887     1.05800
O525        O  0.01354601  0.27182409  0.66343179    -0.79000
O526        O  0.97206509  0.29117232  0.67749779    -0.66600
Ni527      Ni  0.07089876  0.23393951  0.70159534     1.34900
C528        C  0.97879458  0.29594974  0.68632599     0.84500
O529        O  0.10474358  0.24857534  0.67956656    -0.79600
O530        O  0.11757459  0.23972953  0.69515104    -0.89800
C531        C  0.03500722  0.25769163  0.65972900     0.84100
O532        O  0.06567196  0.20743214  0.69497653    -0.68000
O533        O  0.92200122  0.25819902  0.67704477    -0.87300
C534        C  0.05643005  0.20214355  0.68639702     0.84900
C535        C  0.12782826  0.24581511  0.68668403     1.06500
H536        H  0.98685722  0.23205052  0.67814469     0.38300
O537        O  0.99532545  0.24652294  0.67946081    -1.10000
O538        O  0.98818870  0.28217860  0.69270240    -0.66600
Ni539      Ni  0.98980385  0.25128646  0.69315366     1.26300
O540        O  0.05012275  0.21586210  0.67968480    -0.66900
O541        O  0.93497771  0.25062216  0.69279882    -0.79200
C542        C  0.00733426  0.24250010  0.71251403     0.84300
O543        O  0.98848195  0.25510239  0.70710076    -0.66300
Ni544      Ni  0.96871893  0.26454246  0.67060556     1.27400
Ni545      Ni  0.04982081  0.24715841  0.67912562     1.26100
H546        H  0.05265580  0.26643115  0.69407395     0.38800
O547        O  0.51754841  0.23487089  0.71054991    -0.81100
O548        O  0.56051810  0.24258841  0.66691378    -0.65800
O549        O  0.54088408  0.25622360  0.69358040    -1.12400
C550        C  0.41227687  0.25702786  0.68466352     1.05800
O551        O  0.51366697  0.26158587  0.66036139    -0.79000
O552        O  0.48808907  0.28926826  0.67395332    -0.66600
Ni553      Ni  0.56393583  0.23874684  0.70346024     1.34900
C554        C  0.48437781  0.29719720  0.68240300     0.84500
O555        O  0.60521179  0.25235395  0.68202808    -0.79600
O556        O  0.61293513  0.24133311  0.69745221    -0.89800
C557        C  0.54403815  0.25083104  0.65961841     0.84100
O558        O  0.55565349  0.21112382  0.69777554    -0.68000
O559        O  0.42477838  0.26351542  0.67647606    -0.87300
C560        C  0.55428719  0.20507322  0.68896511     0.84900
C561        C  0.62619541  0.24794314  0.68934111     1.06500
H562        H  0.49023374  0.23137997  0.67861356     0.38300
O563        O  0.49714222  0.24630308  0.67937948    -1.10000
O564        O  0.48243529  0.28537612  0.69004453    -0.66600
Ni565      Ni  0.48713771  0.25448032  0.69269570     1.26300
O566        O  0.55475573  0.21822131  0.68189788    -0.66900
O567        O  0.43364829  0.25120564  0.69160769    -0.79200
C568        C  0.49386629  0.24932305  0.71282395     0.84300
O569        O  0.48035011  0.26154593  0.70627598    -0.66300
Ni570      Ni  0.47175589  0.26203226  0.66931920     1.27400
Ni571      Ni  0.55141418  0.24902621  0.68033746     1.26100
H572        H  0.54834801  0.27094701  0.69469701     0.38800
O573        O  0.12202224  0.22444185  0.53959329    -0.81100
O574        O  0.07387755  0.23952941  0.58141636    -0.65800
O575        O  0.09653592  0.24938166  0.55463592    -1.12400
C576        C  0.22427859  0.24710010  0.56579026     1.05800
O577        O  0.11425664  0.26478335  0.58601176    -0.79000
O578        O  0.16038528  0.28514091  0.57330228    -0.66600
Ni579      Ni  0.07388373  0.23204956  0.54476595     1.34900
C580        C  0.16063031  0.29108763  0.56445608     0.84500
O581        O  0.02977333  0.24509619  0.56559005    -0.79600
O582        O  0.02425732  0.23847474  0.54946357    -0.89800
C583        C  0.08714915  0.25196973  0.58789033     0.84100
O584        O  0.07317384  0.20505735  0.55130269    -0.68000
O585        O  0.21072062  0.25193312  0.57414804    -0.87300
C586        C  0.07660101  0.19965647  0.56015873     0.84900
C587        C  0.01008291  0.24205939  0.55785684     1.06500
H588        H  0.14431203  0.22705821  0.57069932     0.38300
O589        O  0.13771567  0.24184800  0.56942653    -1.10000
O590        O  0.15545989  0.27820180  0.55734289    -0.66600
Ni591      Ni  0.15052628  0.24727276  0.55611182     1.26300
O592        O  0.08184531  0.21302660  0.56699178    -0.66900
O593        O  0.20408823  0.24446216  0.55815328    -0.79200
C594        C  0.14418491  0.23867051  0.53636622     0.84300
O595        O  0.15967523  0.25144594  0.54238670    -0.66300
Ni596      Ni  0.16132227  0.25786248  0.57953004     1.27400
Ni597      Ni  0.08377874  0.24378392  0.56786807     1.26100
H598        H  0.08996621  0.26411840  0.55323820     0.38800
O599        O  0.61124755  0.22453417  0.53791516    -0.81100
O600        O  0.58430518  0.23304623  0.58183251    -0.65800
O601        O  0.59312688  0.24601550  0.55468325    -1.12400
C602        C  0.72545560  0.23951434  0.56164212     1.05800
O603        O  0.62726594  0.25768928  0.58501598    -0.79000
O604        O  0.67388890  0.27748901  0.57214874    -0.66600
Ni605      Ni  0.56624252  0.22934078  0.54525664     1.34900
C606        C  0.66682925  0.28544758  0.56384600     0.84500
O607        O  0.53241596  0.24112406  0.56773560    -0.79600
O608        O  0.51942219  0.23343451  0.55202377    -0.89800
C609        C  0.60241188  0.24442706  0.58794745     0.84100
O610        O  0.57259453  0.20154508  0.55086388    -0.68000
O611        O  0.71594803  0.24174536  0.57057509    -0.87300
C612        C  0.57791565  0.19526866  0.55954122     0.84900
C613        C  0.50914257  0.23774767  0.56072133     1.06500
H614        H  0.64746575  0.22088515  0.56801721     0.38300
O615        O  0.64116349  0.23595497  0.56762924    -1.10000
O616        O  0.65319268  0.27457918  0.55676874    -0.66600
Ni617      Ni  0.64754505  0.24398638  0.55431429     1.26300
O618        O  0.58291505  0.20808729  0.56661448    -0.66900
O619        O  0.70191890  0.24060493  0.55454914    -0.79200
C620        C  0.62989783  0.24032472  0.53469444     0.84300
O621        O  0.64958498  0.25137304  0.54061717    -0.66300
Ni622      Ni  0.67071760  0.24933348  0.57744489     1.27400
Ni623      Ni  0.58700016  0.23876076  0.56810342     1.26100
H624        H  0.58578315  0.26084155  0.55383182     0.38800
O625        O  0.00826468  0.01319770  0.53911797    -0.81100
O626        O  0.04477037  0.00228147  0.58217621    -0.65800
O627        O  0.03293458  0.99058760  0.55496158    -1.12400
C628        C  0.90233784  0.98600718  0.56381567     1.05800
O629        O  0.01012701  0.97369209  0.58521389    -0.79000
O630        O  0.96946739  0.95095953  0.57217183    -0.66600
Ni631      Ni  0.05574089  0.00848369  0.54538869     1.34900
C632        C  0.97583631  0.94519098  0.56346192     0.84500
O633        O  0.09498752  0.99900922  0.56724464    -0.79600
O634        O  0.10445754  0.00456545  0.55116936    -0.89800
C635        C  0.03051087  0.98912616  0.58823237     0.84100
O636        O  0.05069323  0.03557653  0.55164175    -0.68000
O637        O  0.91469218  0.98156860  0.57233188    -0.87300
C638        C  0.04280965  0.04119654  0.56027723     0.84900
C639        C  0.11658098  0.00199227  0.55985111     1.06500
H640        H  0.97623431  0.00998067  0.56989557     0.38300
O641        O  0.98610912  0.99572428  0.56878003    -1.10000
O642        O  0.98074017  0.95854979  0.55656893    -0.66600
Ni643      Ni  0.97844876  0.98942198  0.55530929     1.26300
O644        O  0.03671911  0.02789599  0.56710979    -0.66900
O645        O  0.92383752  0.98895352  0.55640534    -0.79200
C646        C  0.99038989  0.99735918  0.53563524     0.84300
O647        O  0.97432696  0.98435628  0.54144666    -0.66300
Ni648      Ni  0.96321859  0.97802026  0.57838965     1.27400
Ni649      Ni  0.04044617  0.99721360  0.56838157     1.26100
H650        H  0.04263846  0.97628357  0.55387120     0.38800
O651        O  0.51386405  0.00870309  0.53907117    -0.81100
O652        O  0.54302039  0.99660113  0.58209777    -0.65800
O653        O  0.53107174  0.98482889  0.55500983    -1.12400
C654        C  0.40023618  0.99164311  0.56309565     1.05800
O655        O  0.50216151  0.97052331  0.58500892    -0.79000
O656        O  0.45606601  0.95117744  0.57178309    -0.66600
Ni657      Ni  0.55908615  0.00023376  0.54548219     1.34900
C658        C  0.45894883  0.94513415  0.56297204     0.84500
O659        O  0.59401700  0.98997216  0.56762040    -0.79600
O660        O  0.60581050  0.99264266  0.55152230    -0.89800
C661        C  0.52633440  0.98412349  0.58804567     0.84100
O662        O  0.56031461  0.02783052  0.55141555    -0.68000
O663        O  0.41043106  0.98651451  0.57173434    -0.87300
C664        C  0.55198484  0.03474360  0.55982329     0.84900
C665        C  0.61677021  0.99091447  0.56033851     1.06500
H666        H  0.47836318  0.00902881  0.56950959     0.38300
O667        O  0.48489653  0.99413542  0.56847751    -1.10000
O668        O  0.46873709  0.95779352  0.55615743    -0.66600
Ni669      Ni  0.47673602  0.98836989  0.55502540     1.26300
O670        O  0.54217698  0.02252087  0.56681180    -0.66900
O671        O  0.42285462  0.99279674  0.55581840    -0.79200
C672        C  0.49237497  0.99450219  0.53555120     0.84300
O673        O  0.47229491  0.98329440  0.54125196    -0.66300
Ni674      Ni  0.45718885  0.97866588  0.57798923     1.27400
Ni675      Ni  0.53912465  0.99169026  0.56837508     1.26100
H676        H  0.53690668  0.96979552  0.55414016     0.38800
O677        O  0.09034499  0.01066111  0.71268400    -0.81100
O678        O  0.05901840  0.00100189  0.66726455    -0.65800
O679        O  0.07651084  0.99133422  0.69448136    -1.12400
C680        C  0.20574091  0.99828768  0.68470477     1.05800
O681        O  0.10176951  0.97680033  0.66330863    -0.79000
O682        O  0.14721718  0.95778693  0.67651199    -0.66600
Ni683      Ni  0.04967062  0.00949935  0.70345019     1.34900
C684        C  0.14575113  0.95187074  0.68534784     0.84500
O685        O  0.01336566  0.99103661  0.68223664    -0.79600
O686        O  0.00379544  0.00986663  0.69582000    -0.89800
C687        C  0.07518597  0.98942488  0.66091183     0.84100
O688        O  0.06704009  0.03558969  0.69778222    -0.68000
O689        O  0.19414247  0.99245283  0.67630251    -0.87300
C690        C  0.06372797  0.04108153  0.68892718     0.84900
C691        C  0.99146753  0.99928025  0.68854912     1.06500
H692        H  0.12473560  0.01589725  0.67891508     0.38300
O693        O  0.11974551  0.00087831  0.68012934    -1.10000
O694        O  0.13841227  0.96472496  0.69233610    -0.66600
Ni695      Ni  0.13042213  0.99549036  0.69356340     1.26300
O696        O  0.05881031  0.02742335  0.68209352    -0.66900
O697        O  0.18392454  0.00048286  0.69207313    -0.79200
C698        C  0.12071243  0.00024461  0.71407471     0.84300
O699        O  0.13865831  0.99095535  0.70724316    -0.66300
Ni700      Ni  0.14667111  0.98517623  0.67035083     1.27400
Ni701      Ni  0.06640640  0.99647165  0.68094020     1.26100
H702        H  0.07080656  0.97654054  0.69599971     0.38800
O703        O  0.59775283  0.01591405  0.70935901    -0.81100
O704        O  0.56179056  0.00338192  0.66609624    -0.65800
O705        O  0.57480247  0.99365021  0.69330707    -1.12400
C706        C  0.70614087  0.99396740  0.68436789     1.05800
O707        O  0.60129358  0.97666287  0.66319664    -0.79000
O708        O  0.65016383  0.95783055  0.67592085    -0.66600
Ni709      Ni  0.55091890  0.01150323  0.70272284     1.34900
C710        C  0.64283206  0.95101516  0.68442992     0.84500
O711        O  0.51225165  0.99902043  0.68090010    -0.79600
O712        O  0.50247548  0.00810823  0.69661834    -0.89800
C713        C  0.57672373  0.99005406  0.66024641     0.84100
O714        O  0.55806190  0.03842737  0.69650712    -0.68000
O715        O  0.69447661  0.99292414  0.67556280    -0.87300
C716        C  0.56333379  0.04401898  0.68773823     0.84900
C717        C  0.49053178  0.00356103  0.68808368     1.06500
H718        H  0.62891748  0.01531825  0.67875278     0.38300
O719        O  0.62113055  0.00055106  0.67956495    -1.10000
O720        O  0.63002638  0.96296716  0.69119602    -0.66600
Ni721      Ni  0.62938960  0.99371794  0.69291475     1.26300
O722        O  0.56643039  0.03059769  0.68079039    -0.66900
O723        O  0.68416412  0.99409413  0.69182306    -0.79200
C724        C  0.61640657  0.00016073  0.71262002     0.84300
O725        O  0.63350297  0.98789210  0.70667549    -0.66300
Ni726      Ni  0.64714411  0.98519271  0.66972628     1.27400
Ni727      Ni  0.56677268  0.99957900  0.67986823     1.26100
H728        H  0.56615099  0.97917368  0.69452430     0.38800
O729        O  0.35758026  0.72492202  0.53870521    -0.81100
O730        O  0.31560413  0.73822211  0.58282000    -0.65800
O731        O  0.33719602  0.74759573  0.55574257    -1.12400
C732        C  0.46498414  0.74395320  0.56674929     1.05800
O733        O  0.35640247  0.76332440  0.58702815    -0.79000
O734        O  0.40140142  0.78335313  0.57382939    -0.66600
Ni735      Ni  0.31237517  0.73022796  0.54610774     1.34900
C736        C  0.40207064  0.78833825  0.56485222     0.84500
O737        O  0.27122665  0.74658879  0.56732868    -0.79600
O738        O  0.26375635  0.73406427  0.55214213    -0.89800
C739        C  0.33079791  0.74990205  0.58930481     0.84100
O740        O  0.32038439  0.70346033  0.55240441    -0.68000
O741        O  0.45180207  0.75026984  0.57491720    -0.87300
C742        C  0.32127488  0.69829304  0.56132714     0.84900
C743        C  0.25047860  0.74165210  0.56005615     1.06500
H744        H  0.38413129  0.72455276  0.57207858     0.38300
O745        O  0.37842084  0.73936294  0.57059038    -1.10000
O746        O  0.39771141  0.77469666  0.55805733    -0.66600
Ni747      Ni  0.39097311  0.74404893  0.55719760     1.26300
O748        O  0.31993313  0.71185181  0.56823996    -0.66900
O749        O  0.44441719  0.74008764  0.55927439    -0.79200
C750        C  0.38498746  0.73743227  0.53685383     0.84300
O751        O  0.40080184  0.74825475  0.54355620    -0.66300
Ni752      Ni  0.40288192  0.75629097  0.58038625     1.27400
Ni753      Ni  0.32478001  0.74266288  0.56919410     1.26100
H754        H  0.33156871  0.76240048  0.55424854     0.38800
O755        O  0.85275289  0.72605420  0.53916066    -0.81100
O756        O  0.82582051  0.73681236  0.58272407    -0.65800
O757        O  0.83318079  0.74884097  0.55549902    -1.12400
C758        C  0.96572547  0.74896013  0.56232360     1.05800
O759        O  0.86603354  0.76297403  0.58592581    -0.79000
O760        O  0.90760272  0.78426732  0.57232370    -0.66600
Ni761      Ni  0.80707843  0.73169641  0.54620407     1.34900
C762        C  0.90036506  0.79099219  0.56378873     0.84500
O763        O  0.77322851  0.74272626  0.56864414    -0.79600
O764        O  0.75990224  0.73624357  0.55281011    -0.89800
C765        C  0.84221203  0.74905099  0.58881005     0.84100
O766        O  0.81274019  0.70437846  0.55214880    -0.68000
O767        O  0.95601126  0.75089830  0.57124246    -0.87300
C768        C  0.82093608  0.69849050  0.56071485     0.84900
C769        C  0.74987224  0.73972352  0.56161857     1.06500
H770        H  0.89026396  0.72646465  0.56919087     0.38300
O771        O  0.88223256  0.74121912  0.56853042    -1.10000
O772        O  0.88947176  0.77891366  0.55684811    -0.66600
Ni773      Ni  0.88752132  0.74828377  0.55503585     1.26300
O774        O  0.82741630  0.71147922  0.56763081    -0.66900
O775        O  0.94220007  0.74757450  0.55523882    -0.79200
C776        C  0.87153654  0.74128192  0.53546352     0.84300
O777        O  0.88873491  0.75410650  0.54117201    -0.66300
Ni778      Ni  0.90995546  0.75651111  0.57812606     1.27400
Ni779      Ni  0.82795163  0.74215372  0.56897313     1.26100
H780        H  0.82466208  0.76344094  0.55457834     0.38800
O781        O  0.25785121  0.72815429  0.71097176    -0.81100
O782        O  0.29800541  0.74122965  0.66823787    -0.65800
O783        O  0.27995864  0.75327616  0.69526451    -1.12400
C784        C  0.15177033  0.75121212  0.68534398     1.05800
O785        O  0.25928011  0.76745659  0.66423986    -0.79000
O786        O  0.21671676  0.78920210  0.67735825    -0.66600
Ni787      Ni  0.30452544  0.73651873  0.70505412     1.34900
C788        C  0.21403896  0.79479789  0.68623091     0.84500
O789        O  0.34505375  0.74783403  0.68356143    -0.79600
O790        O  0.35305048  0.74351643  0.69976350    -0.89800
C791        C  0.28239219  0.75281647  0.66177370     0.84100
O792        O  0.30484560  0.70914843  0.69878380    -0.68000
O793        O  0.16426058  0.75709486  0.67702780    -0.87300
C794        C  0.29793312  0.70309380  0.69014898     0.84900
C795        C  0.36589934  0.74640568  0.69117711     1.06500
H796        H  0.22928133  0.73073873  0.67962301     0.38300
O797        O  0.23667253  0.74540444  0.68092807    -1.10000
O798        O  0.21874339  0.78168200  0.69329750    -0.66600
Ni799      Ni  0.22589620  0.75069788  0.69437657     1.26300
O800        O  0.29112865  0.71601543  0.68323527    -0.66900
O801        O  0.17250805  0.74733124  0.69275516    -0.79200
C802        C  0.23371090  0.74130174  0.71420944     0.84300
O803        O  0.21829173  0.75430662  0.70826291    -0.66300
Ni804      Ni  0.21278388  0.76197001  0.67111448     1.27400
Ni805      Ni  0.29071934  0.74675421  0.68190477     1.26100
H806        H  0.28642521  0.76814636  0.69640859     0.38800
O807        O  0.76328987  0.73077641  0.71027746    -0.81100
O808        O  0.79476894  0.74275868  0.66696432    -0.65800
O809        O  0.78314674  0.75449771  0.69404936    -1.12400
C810        C  0.65162761  0.75398736  0.68634356     1.05800
O811        O  0.75388433  0.76816306  0.66279352    -0.79000
O812        O  0.71794352  0.79126845  0.67687839    -0.66600
Ni813      Ni  0.80902000  0.73758522  0.70352741     1.34900
C814        C  0.72128413  0.79701854  0.68571867     0.84500
O815        O  0.84529162  0.74856344  0.68143970    -0.79600
O816        O  0.85650598  0.74339294  0.69742984    -0.89800
C817        C  0.77929517  0.75450831  0.66055674     0.84100
O818        O  0.80613248  0.71016780  0.69732090    -0.68000
O819        O  0.66273374  0.76047534  0.67798378    -0.87300
C820        C  0.79865998  0.70430739  0.68867919     0.84900
C821        C  0.86776765  0.74613126  0.68869130     1.06500
H822        H  0.72821052  0.73233170  0.67927473     0.38300
O823        O  0.73617633  0.74697601  0.68039171    -1.10000
O824        O  0.72536119  0.78368685  0.69267579    -0.66600
Ni825      Ni  0.72888678  0.75279874  0.69394275     1.26300
O826        O  0.79124173  0.71734699  0.68185439    -0.66900
O827        O  0.67458155  0.74997385  0.69330086    -0.79200
C828        C  0.74200434  0.74535914  0.71359277     0.84300
O829        O  0.72514324  0.75785912  0.70773742    -0.66300
Ni830      Ni  0.70982854  0.76389481  0.67100126     1.27400
Ni831      Ni  0.79053757  0.74804288  0.68060739     1.26100
H832        H  0.79068946  0.76924144  0.69509249     0.38800
O833        O  0.48507161  0.52354722  0.91376038    -0.81100
O834        O  0.52757529  0.50354236  0.95629250    -0.65800
O835        O  0.50966003  0.49689092  0.92891723    -1.12400
C836        C  0.38111907  0.49165242  0.93882697     1.05800
O837        O  0.49122934  0.47551566  0.95878072    -0.79000
O838        O  0.45082763  0.45537454  0.94518627    -0.66600
Ni839      Ni  0.53261512  0.51490395  0.91945449     1.34900
C840        C  0.45433290  0.45161371  0.93614912     0.84500
O841        O  0.57458513  0.50128451  0.94053617    -0.79600
O842        O  0.58164865  0.50749305  0.92440457    -0.89800
C843        C  0.51247918  0.49016990  0.96213046     0.84100
O844        O  0.53422817  0.54090237  0.92673384    -0.68000
O845        O  0.39421624  0.48516858  0.94698456    -0.87300
C846        C  0.52958241  0.54555297  0.93565415     0.84900
C847        C  0.59505021  0.50415521  0.93292311     1.06500
H848        H  0.45770605  0.51479761  0.94544837     0.38300
O849        O  0.46611194  0.50063243  0.94356006    -1.10000
O850        O  0.45566628  0.46631225  0.92974415    -0.66600
Ni851      Ni  0.45568418  0.49729829  0.93001729     1.26300
O852        O  0.52051421  0.53184340  0.94212514    -0.66900
O853        O  0.40177473  0.49759400  0.93168613    -0.79200
C854        C  0.46050505  0.51023562  0.91072721     0.84300
O855        O  0.44803265  0.49560018  0.91627472    -0.66300
Ni856      Ni  0.44371136  0.48099269  0.95252874     1.27400
Ni857      Ni  0.52039177  0.50087219  0.94240683     1.26100
H858        H  0.51760052  0.48248360  0.92729216     0.38800
O859        O  0.99200777  0.51868040  0.91366289    -0.81100
O860        O  0.02507504  0.50027835  0.95710497    -0.65800
O861        O  0.00974951  0.49341637  0.92963940    -1.12400
C862        C  0.87934798  0.49886285  0.93855930     1.05800
O863        O  0.98213888  0.47522945  0.95922536    -0.79000
O864        O  0.93565333  0.45825377  0.94618834    -0.66600
Ni865      Ni  0.03711470  0.50982109  0.92031391     1.34900
C866        C  0.94096148  0.45279343  0.93740207     0.84500
O867        O  0.07353941  0.49309700  0.94184871    -0.79600
O868        O  0.08420214  0.50205745  0.92622639    -0.89800
C869        C  0.00651806  0.48793539  0.96275590     0.84100
O870        O  0.03758541  0.53651803  0.92696666    -0.68000
O871        O  0.88993904  0.49347281  0.94711499    -0.87300
C872        C  0.03346871  0.54199102  0.93579605     0.84900
C873        C  0.09574359  0.49561240  0.93453175     1.06500
H874        H  0.95992670  0.51634527  0.94512855     0.38300
O875        O  0.96525714  0.50144986  0.94371655    -1.10000
O876        O  0.94958698  0.46619338  0.93077860    -0.66600
Ni877      Ni  0.95579815  0.49701358  0.93020105     1.26300
O878        O  0.02619353  0.52856171  0.94257133    -0.66900
O879        O  0.90196239  0.50093007  0.93134611    -0.79200
C880        C  0.96735469  0.50555575  0.91056620     0.84300
O881        O  0.94968444  0.49352652  0.91645357    -0.66300
Ni882      Ni  0.93709877  0.48495070  0.95290725     1.27400
Ni883      Ni  0.01937925  0.49756139  0.94317152     1.26100
H884        H  0.01536365  0.47860389  0.92821187     0.38800
O885        O  0.37371193  0.52581676  0.83572575    -0.81100
O886        O  0.36144399  0.50964940  0.79134897    -0.65800
O887        O  0.36581878  0.49997665  0.81903388    -1.12400
C888        C  0.49808507  0.50349009  0.81302846     1.05800
O889        O  0.39936119  0.48201867  0.79010779    -0.79000
O890        O  0.43366631  0.46244752  0.80500549    -0.66600
Ni891      Ni  0.33326847  0.51481938  0.82782687     1.34900
C892        C  0.43115496  0.45902082  0.81407416     0.84500
O893        O  0.30627125  0.50402154  0.80497295    -0.79600
O894        O  0.28954010  0.50547864  0.82080042    -0.89800
C895        C  0.38075909  0.49694903  0.78604813     0.84100
O896        O  0.33231067  0.54150961  0.82118948    -0.68000
O897        O  0.48888553  0.49371873  0.80516423    -0.87300
C898        C  0.34421991  0.54816461  0.81301552     0.84900
C899        C  0.28144076  0.50437011  0.81176769     1.06500
H900        H  0.42299778  0.52153061  0.80422321     0.38300
O901        O  0.41521315  0.50717887  0.80600139    -1.10000
O902        O  0.42807652  0.47395429  0.82034505    -0.66600
Ni903      Ni  0.41984513  0.50467717  0.81974963     1.26300
O904        O  0.35851817  0.53603276  0.80653600    -0.66900
O905        O  0.47387023  0.50959277  0.81941879    -0.79200
C906        C  0.40100276  0.51511142  0.83918855     0.84300
O907        O  0.42167353  0.50350485  0.83374445    -0.66300
Ni908      Ni  0.44308102  0.48815539  0.79794308     1.27400
Ni909      Ni  0.36114600  0.50531570  0.80528508     1.26100
H910        H  0.36082428  0.48487795  0.82001748     0.38800
O911        O  0.89605588  0.52195650  0.83613434    -0.81100
O912        O  0.84800504  0.50764280  0.79323705    -0.65800
O913        O  0.86978559  0.49808967  0.82029465    -1.12400
C914        C  0.99721170  0.49779101  0.80852583     1.05800
O915        O  0.88396757  0.47973891  0.79066788    -0.79000
O916        O  0.93185977  0.45956040  0.80234813    -0.66600
Ni917      Ni  0.84784822  0.51495633  0.83038369     1.34900
C918        C  0.92916891  0.45441360  0.81124438     0.84500
O919        O  0.80282771  0.50288877  0.80932101    -0.79600
O920        O  0.79797395  0.50912916  0.82551043    -0.89800
C921        C  0.86335740  0.49456423  0.78730958     0.84100
O922        O  0.84734905  0.54196467  0.82389162    -0.68000
O923        O  0.98292387  0.49215608  0.80036035    -0.87300
C924        C  0.84931751  0.54763579  0.81502202     0.84900
C925        C  0.78344432  0.50576916  0.81712269     1.06500
H926        H  0.91861176  0.51885727  0.80386775     0.38300
O927        O  0.91104497  0.50433602  0.80540950    -1.10000
O928        O  0.92524156  0.46817689  0.81800837    -0.66600
Ni929      Ni  0.92381400  0.49921731  0.81862708     1.26300
O930        O  0.85553586  0.53455023  0.80806512    -0.66900
O931        O  0.97760088  0.50090690  0.81625261    -0.79200
C932        C  0.92047818  0.50794008  0.83848468     0.84300
O933        O  0.93379263  0.49524937  0.83214900    -0.66300
Ni934      Ni  0.93278073  0.48633491  0.79569675     1.27400
Ni935      Ni  0.85688329  0.50360125  0.80701331     1.26100
H936        H  0.86246861  0.48348246  0.82164700     0.38800
O937        O  0.15237590  0.72347016  0.91495908    -0.81100
O938        O  0.11186983  0.73754284  0.95822255    -0.65800
O939        O  0.12873479  0.74728771  0.93101533    -1.12400
C940        C  0.25790227  0.75060389  0.94122972     1.05800
O941        O  0.14692559  0.76600455  0.96102337    -0.79000
O942        O  0.19001074  0.78721830  0.94822076    -0.66600
Ni943      Ni  0.10515369  0.73027360  0.92123903     1.34900
C944        C  0.18699090  0.79214613  0.93929858     0.84500
O945        O  0.06430036  0.74140969  0.94283551    -0.79600
O946        O  0.05629445  0.73625463  0.92669919    -0.89800
C947        C  0.12575227  0.75109998  0.96416483     0.84100
O948        O  0.10567427  0.70317899  0.92776586    -0.68000
O949        O  0.24424230  0.75635289  0.94944206    -0.87300
C950        C  0.10975706  0.69741699  0.93658397     0.84900
C951        C  0.04333912  0.73900830  0.93530211     1.06500
H952        H  0.18136711  0.72755836  0.94693607     0.38300
O953        O  0.17276800  0.74190152  0.94542402    -1.10000
O954        O  0.18356127  0.77819004  0.93256502    -0.66600
Ni955      Ni  0.18303935  0.74702602  0.93197873     1.26300
O956        O  0.11791362  0.71048032  0.94344063    -0.66900
O957        O  0.23736536  0.74628507  0.93376291    -0.79200
C958        C  0.17514429  0.73790124  0.91204835     0.84300
O959        O  0.18999136  0.75075377  0.91816207    -0.66300
Ni960      Ni  0.19476224  0.76057806  0.95489165     1.27400
Ni961      Ni  0.11849712  0.74157485  0.94442933     1.26100
H962        H  0.12064650  0.76182264  0.92978246     0.38800
O963        O  0.64644337  0.72173495  0.91424196    -0.81100
O964        O  0.61565307  0.74083421  0.95820687    -0.65800
O965        O  0.62771539  0.74704034  0.93049065    -1.12400
C966        C  0.75871329  0.74712749  0.93913708     1.05800
O967        O  0.65291782  0.76872062  0.95921986    -0.79000
O968        O  0.69698026  0.78660533  0.94590460    -0.66600
Ni969      Ni  0.60139416  0.72947338  0.92135885     1.34900
C970        C  0.69090319  0.79089048  0.93702728     0.84500
O971        O  0.56530045  0.74451976  0.94323372    -0.79600
O972        O  0.55403496  0.73612424  0.92749132    -0.89800
C973        C  0.63303790  0.75459739  0.96341715     0.84100
O974        O  0.60410661  0.70310205  0.92835235    -0.68000
O975        O  0.74774273  0.75341890  0.94754433    -0.87300
C976        C  0.60936998  0.69833239  0.93724776     0.84900
C977        C  0.54294440  0.74112432  0.93605005     1.06500
H978        H  0.68166580  0.72747261  0.94616473     0.38300
O979        O  0.67399771  0.74189605  0.94446798    -1.10000
O980        O  0.68424630  0.77647080  0.93070555    -0.66600
Ni981      Ni  0.68203030  0.74543788  0.93088818     1.26300
O982        O  0.61695111  0.71214655  0.94382383    -0.66900
O983        O  0.73638806  0.74370385  0.93195299    -0.79200
C984        C  0.67132985  0.73493995  0.91127397     0.84300
O985        O  0.68729672  0.74772225  0.91715485    -0.66300
Ni986      Ni  0.69955488  0.76069516  0.95317784     1.27400
Ni987      Ni  0.61966886  0.74315570  0.94417577     1.26100
H988        H  0.62052889  0.76123234  0.92903659     0.38800
O989        O  0.24172387  0.72922545  0.83663565    -0.81100
O990        O  0.28091348  0.74346395  0.79272421    -0.65800
O991        O  0.26279699  0.75287134  0.82008998    -1.12400
C992        C  0.13336941  0.74949839  0.81021549     1.05800
O993        O  0.23986477  0.76872138  0.78994033    -0.79000
O994        O  0.19577657  0.78832605  0.80243093    -0.66600
Ni995      Ni  0.28742199  0.73514083  0.82950907     1.34900
C996        C  0.19928431  0.79428658  0.81120139     0.84500
O997        O  0.32735363  0.75274983  0.80827426    -0.79600
O998        O  0.33564612  0.73974724  0.82336844    -0.89800
C999        C  0.26114252  0.75413764  0.78672299     0.84100
O1000       O  0.28143264  0.70835394  0.82311000    -0.68000
O1001       O  0.14519556  0.75474780  0.80175825    -0.87300
C1002       C  0.28237663  0.70364324  0.81415027     0.84900
C1003       C  0.34852941  0.74805719  0.81554545     1.06500
H1004       H  0.21375918  0.72966007  0.80448208     0.38300
O1005       O  0.21950422  0.74458242  0.80573357    -1.10000
O1006       O  0.20434703  0.78103083  0.81811927    -0.66600
Ni1007     Ni  0.20879281  0.75016959  0.81916394     1.26300
O1008       O  0.28070754  0.71751959  0.80739078    -0.66900
O1009       O  0.15489751  0.74706001  0.81762835    -0.79200
C1010       C  0.21738768  0.74306367  0.83920700     0.84300
O1011       O  0.20135891  0.75482402  0.83288384    -0.66300
Ni1012     Ni  0.19354306  0.76123312  0.79611150     1.27400
Ni1013     Ni  0.27369723  0.74816294  0.80657296     1.26100
H1014       H  0.26940824  0.76752498  0.82160578     0.38800
O1015       O  0.74597774  0.72959338  0.83597524    -0.81100
O1016       O  0.77106285  0.74075712  0.79240940    -0.65800
O1017       O  0.76539705  0.75326801  0.81968389    -1.12400
C1018       C  0.63321677  0.75773051  0.81284227     1.05800
O1019       O  0.73687266  0.76973287  0.79049532    -0.79000
O1020       O  0.69797034  0.79226165  0.80358280    -0.66600
Ni1021     Ni  0.79141737  0.73681526  0.82911131     1.34900
C1022       C  0.70643220  0.79802057  0.81216218     0.84500
O1023       O  0.82542994  0.74446643  0.80665960    -0.79600
O1024       O  0.83824558  0.74302938  0.82278376    -0.89800
C1025       C  0.75432404  0.75397028  0.78679900     0.84100
O1026       O  0.78972218  0.70946475  0.82292133    -0.68000
O1027       O  0.64324158  0.76160708  0.80407060    -0.87300
C1028       C  0.77871455  0.70290744  0.81464403     0.84900
C1029       C  0.84863731  0.74355060  0.81387678     1.06500
H1030       H  0.70586123  0.73326736  0.80564818     0.38300
O1031       O  0.71583731  0.74755620  0.80663901    -1.10000
O1032       O  0.71245658  0.78475550  0.81904478    -0.66600
Ni1033     Ni  0.71106891  0.75375354  0.82011842     1.26300
O1034       O  0.76744548  0.71543679  0.80792654    -0.66900
O1035       O  0.65642243  0.75415080  0.81982674    -0.79200
C1036       C  0.72384316  0.74365322  0.83943930     0.84300
O1037       O  0.70932757  0.75780949  0.83393781    -0.66300
Ni1038     Ni  0.69072703  0.76524823  0.79747446     1.27400
Ni1039     Ni  0.77034092  0.74615026  0.80625390     1.26100
H1040       H  0.77463294  0.76778612  0.82042837     0.38800
O1041       O  0.39106591  0.22613746  0.91263144    -0.81100
O1042       O  0.36044149  0.24026913  0.95715784    -0.65800
O1043       O  0.37305441  0.24983452  0.92964012    -1.12400
C1044       C  0.50358838  0.24848695  0.93820071     1.05800
O1045       O  0.39777895  0.26793747  0.95902373    -0.79000
O1046       O  0.43867859  0.28816450  0.94575761    -0.66600
Ni1047     Ni  0.34648853  0.23356322  0.92007356     1.34900
C1048       C  0.43458423  0.29261926  0.93683275     0.84500
O1049       O  0.31003712  0.24635759  0.94229604    -0.79600
O1050       O  0.29957956  0.24031570  0.92632695    -0.89800
C1051       C  0.37829652  0.25303249  0.96277077     0.84100
O1052       O  0.34797225  0.20620666  0.92645649    -0.68000
O1053       O  0.49242582  0.25625038  0.94633978    -0.87300
C1054       C  0.35245465  0.20032095  0.93525856     0.84900
C1055       C  0.28799821  0.24423333  0.93494840     1.06500
H1056       H  0.42628180  0.22838653  0.94517459     0.38300
O1057       O  0.41875308  0.24288713  0.94359344    -1.10000
O1058       O  0.43115491  0.27828487  0.93030833    -0.66600
Ni1059     Ni  0.42711347  0.24727922  0.93008381     1.26300
O1060       O  0.36060073  0.21334153  0.94214438    -0.66900
O1061       O  0.48099600  0.24399189  0.93122343    -0.79200
C1062       C  0.41713827  0.23913418  0.91015878     0.84300
O1063       O  0.43314847  0.25089619  0.91643362    -0.66300
Ni1064     Ni  0.44420547  0.26164465  0.95244963     1.27400
Ni1065     Ni  0.36445566  0.24439710  0.94323096     1.26100
H1066       H  0.36647936  0.26466662  0.92847329     0.38800
O1067       O  0.89604611  0.22566949  0.91274339    -0.81100
O1068       O  0.85918266  0.23701186  0.95686937    -0.65800
O1069       O  0.87419664  0.24846492  0.92945744    -1.12400
C1070       C  0.00358310  0.25022270  0.93920492     1.05800
O1071       O  0.89358561  0.26557173  0.95878214    -0.79000
O1072       O  0.93713204  0.28684718  0.94660496    -0.66600
Ni1073     Ni  0.84967172  0.23255297  0.91945057     1.34900
C1074       C  0.93432133  0.29211473  0.93775299     0.84500
O1075       O  0.80979956  0.24271457  0.94140327    -0.79600
O1076       O  0.80144832  0.23864668  0.92515826    -0.89800
C1077       C  0.87616644  0.25002547  0.96258120     0.84100
O1078       O  0.84945627  0.20499227  0.92559977    -0.68000
O1079       O  0.99075283  0.25566937  0.94754134    -0.87300
C1080       C  0.85363566  0.19860297  0.93433605     0.84900
C1081       C  0.78877518  0.24107581  0.93379840     1.06500
H1082       H  0.92711945  0.22729339  0.94499505     0.38300
O1083       O  0.91877093  0.24173891  0.94359394    -1.10000
O1084       O  0.93046520  0.27842076  0.93094826    -0.66600
Ni1085     Ni  0.92852785  0.24735121  0.93022662     1.26300
O1086       O  0.86277236  0.21109316  0.94133780    -0.66900
O1087       O  0.98267035  0.24604337  0.93181434    -0.79200
C1088       C  0.92057346  0.23952463  0.91019398     0.84300
O1089       O  0.93560202  0.25158730  0.91655586    -0.66300
Ni1090     Ni  0.94148196  0.26009891  0.95299469     1.27400
Ni1091     Ni  0.86434966  0.24203211  0.94288267     1.26100
H1092       H  0.86666805  0.26318925  0.92847256     0.38800
O1093       O  0.50039321  0.23186473  0.83510789    -0.81100
O1094       O  0.52349756  0.24419017  0.79100545    -0.65800
O1095       O  0.51793574  0.25535879  0.81839252    -1.12400
C1096       C  0.38585191  0.26008773  0.81122140     1.05800
O1097       O  0.49000625  0.27347961  0.78931084    -0.79000
O1098       O  0.45061084  0.29553925  0.80286898    -0.66600
Ni1099     Ni  0.54497323  0.23853535  0.82760929     1.34900
C1100       C  0.45803034  0.30053362  0.81162988     0.84500
O1101       O  0.57733429  0.24810438  0.80497512    -0.79600
O1102       O  0.59164130  0.24401816  0.82089694    -0.89800
C1103       C  0.50665274  0.25752479  0.78553121     0.84100
O1104       O  0.54157343  0.21138406  0.82126377    -0.68000
O1105       O  0.39653614  0.26475480  0.80260344    -0.87300
C1106       C  0.53220120  0.20539893  0.81275397     0.84900
C1107       C  0.60107727  0.24602188  0.81195527     1.06500
H1108       H  0.45855646  0.23601049  0.80395888     0.38300
O1109       O  0.46838714  0.25023633  0.80520272    -1.10000
O1110       O  0.46435748  0.28652277  0.81816532    -0.66600
Ni1111     Ni  0.46340806  0.25552312  0.81875982     1.26300
O1112       O  0.52117287  0.21831015  0.80615506    -0.66900
O1113       O  0.40852680  0.25582537  0.81827861    -0.79200
C1114       C  0.47722211  0.24573852  0.83834802     0.84300
O1115       O  0.46138333  0.25901763  0.83262752    -0.66300
Ni1116     Ni  0.44390718  0.26887027  0.79622882     1.27400
Ni1117     Ni  0.52272908  0.24913082  0.80482899     1.26100
H1118       H  0.52687738  0.26989058  0.81929988     0.38800
O1119       O  0.99666130  0.23019482  0.83513606    -0.81100
O1120       O  0.03328937  0.24413239  0.79170217    -0.65800
O1121       O  0.01431031  0.25423300  0.81873278    -1.12400
C1122       C  0.88569019  0.24973357  0.80845020     1.05800
O1123       O  0.99374438  0.27024828  0.78852383    -0.79000
O1124       O  0.94887726  0.28951768  0.80150290    -0.66600
Ni1125     Ni  0.04191942  0.23906051  0.82850921     1.34900
C1126       C  0.94810279  0.29446028  0.81046370     0.84500
O1127       O  0.07917976  0.25345784  0.80682014    -0.79600
O1128       O  0.08939932  0.24691929  0.82267878    -0.89800
C1129       C  0.01710049  0.25627561  0.78558029     0.84100
O1130       O  0.04445911  0.21163054  0.82244136    -0.68000
O1131       O  0.89855322  0.25627911  0.80028398    -0.87300
C1132       C  0.04103593  0.20540768  0.81369508     0.84900
C1133       C  0.10106870  0.25216721  0.81420046     1.06500
H1134       H  0.96610533  0.23045144  0.80279307     0.38300
O1135       O  0.97179349  0.24525483  0.80432452    -1.10000
O1136       O  0.95240579  0.28063458  0.81716616    -0.66600
Ni1137     Ni  0.96031679  0.24998017  0.81775611     1.26300
O1138       O  0.03247106  0.21793546  0.80668197    -0.66900
O1139       O  0.90645451  0.24582600  0.81592400    -0.79200
C1140       C  0.97086817  0.24308740  0.83779824     0.84300
O1141       O  0.95247707  0.25376041  0.83149584    -0.66300
Ni1142     Ni  0.94716607  0.26270886  0.79480890     1.27400
Ni1143     Ni  0.02560870  0.24878368  0.80536186     1.26100
H1144       H  0.01917237  0.26928697  0.81987610     0.38800
O1145       O  0.23127120  0.01906280  0.91489999    -0.81100
O1146       O  0.26090261  0.00872206  0.95813839    -0.65800
O1147       O  0.24738761  0.99488814  0.93120507    -1.12400
C1148       C  0.11735845  0.99615699  0.93977845     1.05800
O1149       O  0.22462432  0.98081220  0.96082614    -0.79000
O1150       O  0.18575131  0.95871738  0.94779245    -0.66600
Ni1151     Ni  0.27572941  0.00867452  0.92132537     1.34900
C1152       C  0.18583126  0.95333557  0.93889636     0.84500
O1153       O  0.31098133  0.00072434  0.94344261    -0.79600
O1154       O  0.32161232  0.99892480  0.92723746    -0.89800
C1155       C  0.24381973  0.99640268  0.96405986     0.84100
O1156       O  0.28246259  0.03626848  0.92719011    -0.68000
O1157       O  0.12941215  0.98923066  0.94798329    -0.87300
C1158       C  0.27400960  0.04424101  0.93541844     0.84900
C1159       C  0.33303324  0.99890714  0.93606895     1.06500
H1160       H  0.19416933  0.01815577  0.94626831     0.38300
O1161       O  0.20195729  0.00359350  0.94489223    -1.10000
O1162       O  0.18723374  0.96712453  0.93207279    -0.66600
Ni1163     Ni  0.19315794  0.99810044  0.93143996     1.26300
O1164       O  0.25935983  0.03321149  0.94229815    -0.66900
O1165       O  0.13905688  0.00127555  0.93265282    -0.79200
C1166       C  0.20592707  0.00641478  0.91175478     0.84300
O1167       O  0.18777262  0.99446651  0.91762118    -0.66300
Ni1168     Ni  0.17791649  0.98546300  0.95415288     1.27400
Ni1169     Ni  0.25639302  0.00241611  0.94445402     1.26100
H1170       H  0.25319490  0.97979758  0.93062264     0.38800
O1171       O  0.72735562  0.01870311  0.91259557    -0.81100
O1172       O  0.76078159  0.00574405  0.95626295    -0.65800
O1173       O  0.74702448  0.99479619  0.92897186    -1.12400
C1174       C  0.61735449  0.99247469  0.93846008     1.05800
O1175       O  0.72726045  0.97671854  0.95829186    -0.79000
O1176       O  0.68563302  0.95557178  0.94536776    -0.66600
Ni1177     Ni  0.77318229  0.01084783  0.91928969     1.34900
C1178       C  0.68705329  0.95089064  0.93640167     0.84500
O1179       O  0.81058356  0.00055298  0.94129670    -0.79600
O1180       O  0.82099049  0.00395142  0.92514297    -0.89800
C1181       C  0.74503888  0.99236246  0.96196321     0.84100
O1182       O  0.77397145  0.03815489  0.92563740    -0.68000
O1183       O  0.63041655  0.98613150  0.94664158    -0.87300
C1184       C  0.76704461  0.04460815  0.93423893     0.84900
C1185       C  0.83257324  0.00169272  0.93389895     1.06500
H1186       H  0.69306652  0.01517857  0.94462397     0.38300
O1187       O  0.70174791  0.00088778  0.94303345    -1.10000
O1188       O  0.68972159  0.96509084  0.92979745    -0.66600
Ni1189     Ni  0.69243166  0.99611812  0.92955848     1.26300
O1190       O  0.75664687  0.03199316  0.94106345    -0.66900
O1191       O  0.63798167  0.99738130  0.93108447    -0.79200
C1192       C  0.70245628  0.00534760  0.90976433     0.84300
O1193       O  0.68617553  0.99293735  0.91577840    -0.66300
Ni1194     Ni  0.67955164  0.98182964  0.95220839     1.27400
Ni1195     Ni  0.75607208  0.00096340  0.94242369     1.26100
H1196       H  0.75436080  0.98003322  0.92796085     0.38800
O1197       O  0.13306375  0.01984523  0.83669727    -0.81100
O1198       O  0.10719311  0.00971902  0.79266691    -0.65800
O1199       O  0.11755305  0.99633639  0.81976602    -1.12400
C1200       C  0.24831162  0.99827378  0.81171565     1.05800
O1201       O  0.14334464  0.98167775  0.79015991    -0.79000
O1202       O  0.18458011  0.95971040  0.80339789    -0.66600
Ni1203     Ni  0.08890367  0.01108460  0.82942394     1.34900
C1204       C  0.18246555  0.95462319  0.81232814     0.84500
O1205       O  0.05562742  0.00221534  0.80697842    -0.79600
O1206       O  0.04270052  0.00320002  0.82304144    -0.89800
C1207       C  0.12446195  0.99733462  0.78680225     0.84100
O1208       O  0.08667590  0.03877030  0.82346884    -0.68000
O1209       O  0.23729725  0.99159851  0.80337105    -0.87300
C1210       C  0.09724544  0.04646438  0.81535064     0.84900
C1211       C  0.03250646  0.00139012  0.81415472     1.06500
H1212       H  0.17266748  0.01908097  0.80499567     0.38300
O1213       O  0.16451065  0.00453920  0.80627737    -1.10000
O1214       O  0.17733091  0.96830703  0.81906749    -0.66600
Ni1215     Ni  0.17178641  0.99915692  0.81973897     1.26300
O1216       O  0.10948097  0.03451795  0.80849204    -0.66900
O1217       O  0.22595600  0.00233511  0.81883847    -0.79200
C1218       C  0.15919716  0.00723936  0.83947783     0.84300
O1219       O  0.17616131  0.99515508  0.83346858    -0.66300
Ni1220     Ni  0.18959616  0.98680231  0.79705414     1.27400
Ni1221     Ni  0.11027227  0.00366565  0.80639558     1.26100
H1222       H  0.11117182  0.98133858  0.82042881     0.38800
O1223       O  0.64365665  0.02578360  0.83412360    -0.81100
O1224       O  0.59905078  0.00838186  0.79161503    -0.65800
O1225       O  0.61806264  0.00126945  0.81881659    -1.12400
C1226       C  0.74742322  0.99996332  0.80828288     1.05800
O1227       O  0.63830134  0.98177963  0.78902947    -0.79000
O1228       O  0.68730390  0.96341370  0.80128819    -0.66600
Ni1229     Ni  0.59561861  0.01934533  0.82832426     1.34900
C1230       C  0.68037152  0.95772027  0.80998172     0.84500
O1231       O  0.55295595  0.00417180  0.80733285    -0.79600
O1232       O  0.54621602  0.01353484  0.82315921    -0.89800
C1233       C  0.61471463  0.99529783  0.78577934     0.84100
O1234       O  0.59762750  0.04583788  0.82137667    -0.68000
O1235       O  0.73417446  0.99801308  0.79967365    -0.87300
C1236       C  0.59955569  0.05038998  0.81237817     0.84900
C1237       C  0.53268628  0.00818614  0.81486806     1.06500
H1238       H  0.66837497  0.02181701  0.80303681     0.38300
O1239       O  0.66126446  0.00710148  0.80431519    -1.10000
O1240       O  0.67177721  0.97079552  0.81672686    -0.66600
Ni1241     Ni  0.67223192  0.00160414  0.81766319     1.26300
O1242       O  0.60423881  0.03641473  0.80574652    -0.66900
O1243       O  0.72659633  0.00142785  0.81590456    -0.79200
C1244       C  0.66480755  0.01089193  0.83728152     0.84300
O1245       O  0.67930599  0.99754378  0.83137058    -0.66300
Ni1246     Ni  0.68550604  0.99032451  0.79462056     1.27400
Ni1247     Ni  0.60697401  0.00555971  0.80540826     1.26100
H1248       H  0.61005426  0.98685607  0.82042067     0.38800
O1249       O  0.11698127  0.51532807  0.20867735    -0.81100
O1250       O  0.07929570  0.49925222  0.16613721    -0.65800
O1251       O  0.09642984  0.48971493  0.19319631    -1.12400
C1252       C  0.22618703  0.49520640  0.18381220     1.05800
O1253       O  0.12190732  0.47482047  0.16232016    -0.79000
O1254       O  0.16743793  0.45543312  0.17547537    -0.66600
Ni1255     Ni  0.07063908  0.50680049  0.20264962     1.34900
C1256       C  0.16548771  0.44934172  0.18428700     0.84500
O1257       O  0.03211321  0.49212896  0.18124365    -0.79600
O1258       O  0.02273083  0.49915106  0.19720209    -0.89800
C1259       C  0.09620095  0.48796102  0.15981546     0.84100
O1260       O  0.06991040  0.53377239  0.19601156    -0.68000
O1261       O  0.21464447  0.48996039  0.17531185    -0.87300
C1262       C  0.07481534  0.53907130  0.18718127     0.84900
C1263       C  0.01064853  0.49458524  0.18868888     1.06500
H1264       H  0.14612344  0.51312518  0.17787635     0.38300
O1265       O  0.14029157  0.49818164  0.17903502    -1.10000
O1266       O  0.15744207  0.46200632  0.19131484    -0.66600
Ni1267     Ni  0.15046543  0.49291375  0.19248852     1.26300
O1268       O  0.08179942  0.52562293  0.18050106    -0.66900
O1269       O  0.20431509  0.49704870  0.19119987    -0.79200
C1270       C  0.13942395  0.50144403  0.21210233     0.84300
O1271       O  0.15661431  0.48886251  0.20630930    -0.66300
Ni1272     Ni  0.16714352  0.48277138  0.16929116     1.27400
Ni1273     Ni  0.08625580  0.49495092  0.17977784     1.26100
H1274       H  0.09042764  0.47487585  0.19455135     0.38800
O1275       O  0.62185804  0.51474253  0.20727098    -0.81100
O1276       O  0.58250409  0.49768147  0.16486871    -0.65800
O1277       O  0.59506291  0.49059593  0.19221324    -1.12400
C1278       C  0.72626488  0.48691155  0.18340816     1.05800
O1279       O  0.62111230  0.47048366  0.16226931    -0.79000
O1280       O  0.66688553  0.45132001  0.17538237    -0.66600
Ni1281     Ni  0.57394008  0.51074079  0.20105298     1.34900
C1282       C  0.65607056  0.44476127  0.18367141     0.84500
O1283       O  0.53278366  0.49551471  0.17987100    -0.79600
O1284       O  0.52473950  0.50738934  0.19529436    -0.89800
C1285       C  0.59799317  0.48439922  0.15912607     0.84100
O1286       O  0.58255534  0.53661772  0.19398540    -0.68000
O1287       O  0.71474545  0.48476036  0.17465336    -0.87300
C1288       C  0.58665693  0.54050529  0.18498895     0.84900
C1289       C  0.51180536  0.50141823  0.18702250     1.06500
H1290       H  0.65054420  0.50932449  0.17734550     0.38300
O1291       O  0.64183176  0.49478447  0.17836028    -1.10000
O1292       O  0.64577383  0.45765249  0.19041913    -0.66600
Ni1293     Ni  0.64935336  0.48872274  0.19185005     1.26300
O1294       O  0.58840167  0.52587557  0.17857994    -0.66900
O1295       O  0.70412619  0.48752453  0.19082735    -0.79200
C1296       C  0.63778692  0.49887246  0.21130130     0.84300
O1297       O  0.65261144  0.48453378  0.20585855    -0.66300
Ni1298     Ni  0.66720546  0.47813943  0.16881151     1.27400
Ni1299     Ni  0.58731817  0.49495528  0.17866846     1.26100
H1300       H  0.58478431  0.47669394  0.19388705     0.38800
O1301       O  0.01591184  0.51699596  0.03855429    -0.81100
O1302       O  0.04973205  0.50329282  0.08201882    -0.65800
O1303       O  0.03299983  0.49363401  0.05491896    -1.12400
C1304       C  0.90317342  0.50124742  0.06383597     1.05800
O1305       O  0.00460119  0.48056164  0.08604939    -0.79000
O1306       O  0.96043008  0.46173959  0.07269004    -0.66600
Ni1307     Ni  0.06095249  0.51012071  0.04560810     1.34900
C1308       C  0.96209570  0.45533665  0.06392780     0.84500
O1309       O  0.09609311  0.49293121  0.06724174    -0.79600
O1310       O  0.10834838  0.50395280  0.05197704    -0.89800
C1311       C  0.03240485  0.49236981  0.08838155     0.84100
O1312       O  0.05705715  0.53741308  0.05173210    -0.68000
O1313       O  0.91428054  0.49672106  0.07243046    -0.87300
C1314       C  0.05474426  0.54273018  0.06060894     0.84900
C1315       C  0.11892200  0.49635617  0.06018972     1.06500
H1316       H  0.98473551  0.51914828  0.06991951     0.38300
O1317       O  0.98914209  0.50400694  0.06888761    -1.10000
O1318       O  0.97033084  0.46768620  0.05686681    -0.66600
Ni1319     Ni  0.97907107  0.49807092  0.05539393     1.26300
O1320       O  0.05129746  0.52924967  0.06747600    -0.66900
O1321       O  0.92524132  0.50278629  0.05646735    -0.79200
C1322       C  0.99384740  0.50242604  0.03554443     0.84300
O1323       O  0.97332989  0.49244211  0.04164328    -0.66300
Ni1324     Ni  0.96092333  0.48925926  0.07867698     1.27400
Ni1325     Ni  0.04271024  0.49875678  0.06838120     1.26100
H1326       H  0.03809491  0.47867439  0.05359865     0.38800
O1327       O  0.51144029  0.51688339  0.03888168    -0.81100
O1328       O  0.54661851  0.50624982  0.08211101    -0.65800
O1329       O  0.53528227  0.49521765  0.05503129    -1.12400
C1330       C  0.40378960  0.49175446  0.06333371     1.05800
O1331       O  0.50791226  0.47954531  0.08582810    -0.79000
O1332       O  0.46450382  0.45808935  0.07274036    -0.66600
Ni1333     Ni  0.55822657  0.51357679  0.04566128     1.34900
C1334       C  0.47295680  0.45104660  0.06434018     0.84500
O1335       O  0.59662090  0.50165098  0.06755244    -0.79600
O1336       O  0.60652315  0.51060277  0.05184246    -0.89800
C1337       C  0.53354089  0.49291409  0.08819615     0.84100
O1338       O  0.55005549  0.54070090  0.05186286    -0.68000
O1339       O  0.41478824  0.49077235  0.07218947    -0.87300
C1340       C  0.54490227  0.54596681  0.06069815     0.84900
C1341       C  0.61844440  0.50605500  0.06037629     1.06500
H1342       H  0.47906470  0.51609840  0.06927228     0.38300
O1343       O  0.48778263  0.50146912  0.06860502    -1.10000
O1344       O  0.48311942  0.46315811  0.05731780    -0.66600
Ni1345     Ni  0.48097308  0.49385325  0.05520849     1.26300
O1346       O  0.54143134  0.53230668  0.06748871    -0.66900
O1347       O  0.42622363  0.49276797  0.05599678    -0.79200
C1348       C  0.49496661  0.50043291  0.03548802     0.84300
O1349       O  0.47859601  0.48761273  0.04137482    -0.66300
Ni1350     Ni  0.46237919  0.48579939  0.07852994     1.27400
Ni1351     Ni  0.54214200  0.50151014  0.06844718     1.26100
H1352       H  0.54515399  0.48097653  0.05387260     0.38800
O1353       O  0.25724608  0.22283649  0.20882813    -0.81100
O1354       O  0.30519505  0.23606812  0.16771996    -0.65800
O1355       O  0.28231484  0.24855389  0.19421935    -1.12400
C1356       C  0.15472142  0.24527146  0.18284821     1.05800
O1357       O  0.26618619  0.26168271  0.16301476    -0.79000
O1358       O  0.22081713  0.28354749  0.17528576    -0.66600
Ni1359     Ni  0.30539972  0.23222348  0.20430632     1.34900
C1360       C  0.21966890  0.28997457  0.18405907     0.84500
O1361       O  0.34956143  0.24304741  0.18356155    -0.79600
O1362       O  0.35459486  0.24067609  0.19995634    -0.89800
C1363       C  0.29084875  0.24747925  0.16102823     0.84100
O1364       O  0.31111728  0.20503471  0.19810851    -0.68000
O1365       O  0.16875109  0.25082940  0.17463455    -0.87300
C1366       C  0.30539198  0.19859525  0.18948758     0.84900
C1367       C  0.36907562  0.24248257  0.19146507     1.06500
H1368       H  0.23441987  0.22537014  0.17834014     0.38300
O1369       O  0.24129819  0.24015820  0.17954107    -1.10000
O1370       O  0.22291236  0.27722343  0.19133152    -0.66600
Ni1371     Ni  0.22820828  0.24611105  0.19277632     1.26300
O1372       O  0.29646112  0.21107510  0.18257123    -0.66900
O1373       O  0.17449097  0.24275307  0.19060016    -0.79200
C1374       C  0.23507773  0.23666966  0.21234719     0.84300
O1375       O  0.21931245  0.25003329  0.20660434    -0.66300
Ni1376     Ni  0.21848776  0.25598856  0.16931607     1.27400
Ni1377     Ni  0.29538202  0.24178633  0.18115841     1.26100
H1378       H  0.28872242  0.26343291  0.19535008     0.38800
O1379       O  0.76925414  0.22344245  0.20955766    -0.81100
O1380       O  0.79157226  0.23101344  0.16556517    -0.65800
O1381       O  0.78736992  0.24463023  0.19261072    -1.12400
C1382       C  0.65388195  0.24258345  0.18674930     1.05800
O1383       O  0.75040424  0.25676418  0.16217116    -0.79000
O1384       O  0.70809781  0.27851533  0.17561677    -0.66600
Ni1385     Ni  0.81383592  0.22717215  0.20182396     1.34900
C1386       C  0.71605595  0.28636060  0.18391095     0.84500
O1387       O  0.84586339  0.23722521  0.17908927    -0.79600
O1388       O  0.86038684  0.22992553  0.19473890    -0.89800
C1389       C  0.77589844  0.24354741  0.15951691     0.84100
O1390       O  0.80497963  0.19945553  0.19626516    -0.68000
O1391       O  0.66240780  0.24420024  0.17772059    -0.87300
C1392       C  0.79653612  0.19326693  0.18772732     0.84900
C1393       C  0.86981373  0.23348653  0.18590693     1.06500
H1394       H  0.72868112  0.22140782  0.17977496     0.38300
O1395       O  0.73677347  0.23621929  0.18005039    -1.10000
O1396       O  0.72965944  0.27523490  0.19092478    -0.66600
Ni1397     Ni  0.73291023  0.24448199  0.19339433     1.26300
O1398       O  0.79095742  0.20627716  0.18077557    -0.66900
O1399       O  0.67828111  0.24304564  0.19365434    -0.79200
C1400       C  0.75113542  0.23932626  0.21293182     0.84300
O1401       O  0.73327242  0.25154794  0.20710055    -0.66300
Ni1402     Ni  0.70746750  0.25016062  0.17038606     1.27400
Ni1403     Ni  0.79097677  0.23696183  0.17920472     1.26100
H1404       H  0.79637975  0.25920005  0.19334608     0.38800
O1405       O  0.36278865  0.22877063  0.03944255    -0.81100
O1406       O  0.33658924  0.24043908  0.08334661    -0.65800
O1407       O  0.34609894  0.25255524  0.05613742    -1.12400
C1408       C  0.47743897  0.25037532  0.06328528     1.05800
O1409       O  0.37802427  0.26572713  0.08714361    -0.79000
O1410       O  0.41211842  0.28846220  0.07304395    -0.66600
Ni1411     Ni  0.31844217  0.23598367  0.04677336     1.34900
C1412       C  0.41006138  0.29410631  0.06419642     0.84500
O1413       O  0.28493033  0.24683568  0.06920707    -0.79600
O1414       O  0.27171126  0.24181125  0.05331524    -0.89800
C1415       C  0.35341867  0.25192499  0.08964979     0.84100
O1416       O  0.32200942  0.20852774  0.05284275    -0.68000
O1417       O  0.46708880  0.25784393  0.07152391    -0.87300
C1418       C  0.33043141  0.20253038  0.06139646     0.84900
C1419       C  0.26156270  0.24451059  0.06214776     1.06500
H1420       H  0.40145741  0.22973895  0.07070645     0.38300
O1421       O  0.39377372  0.24441426  0.06956989    -1.10000
O1422       O  0.40645730  0.28082013  0.05717133    -0.66600
Ni1423     Ni  0.40027361  0.24990859  0.05597877     1.26300
O1424       O  0.33829883  0.21537393  0.06826376    -0.66900
O1425       O  0.45416399  0.24591716  0.05646106    -0.79200
C1426       C  0.38571188  0.24265370  0.03621568     0.84300
O1427       O  0.40355247  0.25465111  0.04213133    -0.66300
Ni1428     Ni  0.42103999  0.26125548  0.07879375     1.27400
Ni1429     Ni  0.33962755  0.24596867  0.06966014     1.26100
H1430       H  0.33931697  0.26743347  0.05517480     0.38800
O1431       O  0.87000279  0.23195487  0.03938196    -0.81100
O1432       O  0.82935853  0.24341099  0.08195199    -0.65800
O1433       O  0.84809220  0.25603540  0.05517522    -1.12400
C1434       C  0.97687926  0.25302903  0.06549849     1.05800
O1435       O  0.86835758  0.26936184  0.08628468    -0.79000
O1436       O  0.91210363  0.29111661  0.07354742    -0.66600
Ni1437     Ni  0.82312631  0.24016085  0.04518486     1.34900
C1438       C  0.91155201  0.29714216  0.06471978     0.84500
O1439       O  0.78282568  0.25058592  0.06672206    -0.79600
O1440       O  0.77472821  0.24734368  0.05045839    -0.89800
C1441       C  0.84428977  0.25502496  0.08850258     0.84100
O1442       O  0.82088282  0.21261512  0.05123722    -0.68000
O1443       O  0.96367128  0.25861043  0.07378081    -0.87300
C1444       C  0.82706458  0.20602471  0.05983121     0.84900
C1445       C  0.76197068  0.24944395  0.05910218     1.06500
H1446       H  0.89823570  0.23273877  0.07062736     0.38300
O1447       O  0.89116969  0.24750694  0.06947587    -1.10000
O1448       O  0.90734877  0.28430458  0.05756529    -0.66600
Ni1449     Ni  0.90229918  0.25352156  0.05611012     1.26300
O1450       O  0.83563100  0.21850853  0.06680500    -0.66900
O1451       O  0.95638426  0.25030915  0.05786703    -0.79200
C1452       C  0.89264080  0.24603172  0.03621833     0.84300
O1453       O  0.90945671  0.25832838  0.04225391    -0.66300
Ni1454     Ni  0.91500547  0.26363352  0.07952764     1.27400
Ni1455     Ni  0.83709891  0.24919231  0.06840747     1.26100
H1456       H  0.84162190  0.27093677  0.05418454     0.38800
O1457       O  0.35582595  0.01150139  0.20960499    -0.81100
O1458       O  0.32464777  0.99980876  0.16608425    -0.65800
O1459       O  0.33285141  0.98919339  0.19334941    -1.12400
C1460       C  0.46424278  0.98091450  0.18514708     1.05800
O1461       O  0.35704585  0.97020362  0.16335439    -0.79000
O1462       O  0.39658706  0.94750588  0.17691771    -0.66600
Ni1463     Ni  0.30936897  0.00794561  0.20255465     1.34900
C1464       C  0.39110568  0.94259908  0.18578660     0.84500
O1465       O  0.27246261  0.99785487  0.18038713    -0.79600
O1466       O  0.26097765  0.00575833  0.19613253    -0.89800
C1467       C  0.33763707  0.98590970  0.16022795     0.84100
O1468       O  0.31918520  0.03451142  0.19623881    -0.68000
O1469       O  0.45222651  0.97725440  0.17652276    -0.87300
C1470       C  0.32775307  0.03954676  0.18757091     0.84900
C1471       C  0.24989627  0.00243682  0.18739376     1.06500
H1472       H  0.39205362  0.00684568  0.17852619     0.38300
O1473       O  0.38132064  0.99282195  0.17973821    -1.10000
O1474       O  0.38460318  0.95638226  0.19241215    -0.66600
Ni1475     Ni  0.38755964  0.98719055  0.19328821     1.26300
O1476       O  0.33216675  0.02591306  0.18078891    -0.66900
O1477       O  0.44249937  0.98531704  0.19240304    -0.79200
C1478       C  0.37410085  0.99571684  0.21302054     0.84300
O1479       O  0.39021872  0.98271996  0.20719939    -0.66300
Ni1480     Ni  0.40375296  0.97421262  0.17036281     1.27400
Ni1481     Ni  0.32707526  0.99523567  0.17981309     1.26100
H1482       H  0.32244016  0.97506706  0.19449678     0.38800
O1483       O  0.84358775  0.00451677  0.21144362    -0.81100
O1484       O  0.81695037  0.99277558  0.16609986    -0.65800
O1485       O  0.83640502  0.98509196  0.19324461    -1.12400
C1486       C  0.96442549  0.99821955  0.18349431     1.05800
O1487       O  0.86416351  0.97152619  0.16196818    -0.79000
O1488       O  0.90929385  0.95428767  0.17594095    -0.66600
Ni1489     Ni  0.80482064  0.00142588  0.20190369     1.34900
C1490       C  0.91061480  0.94954666  0.18494458     0.84500
O1491       O  0.77353997  0.97960035  0.18104450    -0.79600
O1492       O  0.76004176  0.99966086  0.19391999    -0.89800
C1493       C  0.83606289  0.98313722  0.15965979     0.84100
O1494       O  0.81878924  0.02810838  0.19629290    -0.68000
O1495       O  0.95388271  0.99018462  0.17538826    -0.87300
C1496       C  0.81418733  0.03310029  0.18742034     0.84900
C1497       C  0.74986142  0.98708774  0.18712296     1.06500
H1498       H  0.87966680  0.01163008  0.17717526     0.38300
O1499       O  0.87763145  0.99654958  0.17874368    -1.10000
O1500       O  0.90371190  0.96311796  0.19167858    -0.66600
Ni1501     Ni  0.88928164  0.99319014  0.19227233     1.26300
O1502       O  0.81137045  0.01906392  0.18066941    -0.66900
O1503       O  0.94182130  0.00143701  0.19064975    -0.79200
C1504       C  0.87713913  0.99804204  0.21283361     0.84300
O1505       O  0.89828380  0.99089234  0.20605682    -0.66300
Ni1506     Ni  0.90743126  0.98128039  0.16932003     1.27400
Ni1507     Ni  0.82527838  0.98878269  0.17969454     1.26100
H1508       H  0.83404665  0.97008917  0.19489610     0.38800
O1509       O  0.25462203  0.01913867  0.03992112    -0.81100
O1510       O  0.30157290  0.00513477  0.08196283    -0.65800
O1511       O  0.27771660  0.99449795  0.05529527    -1.12400
C1512       C  0.15025300  0.00106372  0.06650913     0.93000
O1513       O  0.25868446  0.98132146  0.08647889    -0.79000
O1514       O  0.20948245  0.96215723  0.07441324    -0.66600
Ni1515     Ni  0.30196375  0.01030855  0.04520065     1.34900
C1516       C  0.20990277  0.95562353  0.06566246     0.84500
O1517       O  0.34505722  0.99729662  0.06616910    -0.79600
O1518       O  0.35099275  0.00266404  0.04996125    -0.89800
C1519       C  0.28566722  0.99400012  0.08852244     0.84100
O1520       O  0.30522989  0.03763662  0.05140150    -0.68000
O1521       O  0.16344768  0.99692817  0.07497142    -0.87300
C1522       C  0.30211139  0.04369799  0.06018177     0.84900
C1523       C  0.36492506  0.99925185  0.05839423     1.06500
H1524       H  0.23236737  0.01922121  0.07106879     0.38300
O1525       O  0.23744142  0.00416374  0.06998689    -1.10000
O1526       O  0.21672126  0.96779350  0.05840435    -0.66600
Ni1527     Ni  0.22397124  0.99836600  0.05677720     1.26300
O1528       O  0.29603448  0.03093225  0.06719221    -0.66900
O1529       O  0.17066392  0.00261518  0.05884642    -0.79200
C1530       C  0.23019888  0.00585128  0.03693192     0.84300
O1531       O  0.21405341  0.99374376  0.04311261    -0.66300
Ni1532     Ni  0.21218309  0.98967983  0.08028798     1.27400
Ni1533     Ni  0.29124516  0.00038762  0.06845131     1.26100
H1534       H  0.28283738  0.97950709  0.05407487     0.38800
O1535       O  0.76148881  0.02005650  0.03848870    -0.81100
O1536       O  0.79220574  0.00592370  0.08222404    -0.65800
O1537       O  0.78234864  0.99669244  0.05485263    -1.12400
C1538       C  0.65040273  0.99545772  0.06264295     1.05800
O1539       O  0.75327637  0.97887966  0.08524715    -0.79000
O1540       O  0.71265437  0.95813790  0.07146419    -0.66600
Ni1541     Ni  0.80710712  0.01505194  0.04572163     1.34900
C1542       C  0.72073359  0.95223753  0.06286201     0.84500
O1543       O  0.84312336  0.00215641  0.06780275    -0.79600
O1544       O  0.85479931  0.01123326  0.05219392    -0.89800
C1545       C  0.77751852  0.99260361  0.08810382     0.84100
O1546       O  0.79919404  0.04175343  0.05217758    -0.68000
O1547       O  0.66113249  0.99072106  0.07126986    -0.87300
C1548       C  0.79267489  0.04685032  0.06096453     0.84900
C1549       C  0.86572399  0.00656926  0.06080390     1.06500
H1550       H  0.72586969  0.01687992  0.06953626     0.38300
O1551       O  0.73443938  0.00234373  0.06845029    -1.10000
O1552       O  0.72810731  0.96550559  0.05604757    -0.66600
Ni1553     Ni  0.72801777  0.99657940  0.05488779     1.26300
O1554       O  0.78830108  0.03311462  0.06771908    -0.66900
O1555       O  0.67333591  0.99751627  0.05547795    -0.79200
C1556       C  0.74091002  0.00502159  0.03522035     0.84300
O1557       O  0.72517463  0.99195726  0.04106064    -0.66300
Ni1558     Ni  0.70830053  0.98525442  0.07777968     1.27400
Ni1559     Ni  0.78869522  0.00214703  0.06843305     1.26100
H1560       H  0.79131968  0.98230678  0.05358042     0.38800
O1561       O  0.01149941  0.72147007  0.20859418    -0.81100
O1562       O  0.05249761  0.73845959  0.16693477    -0.65800
O1563       O  0.03703356  0.74743673  0.19395636    -1.12400
C1564       C  0.90806346  0.75207735  0.18391078     1.05800
O1565       O  0.01905140  0.76761315  0.16388810    -0.79000
O1566       O  0.97618129  0.78888711  0.17729344    -0.66600
Ni1567     Ni  0.05965710  0.72829925  0.20312757     1.34900
C1568       C  0.97606156  0.79325764  0.18633457     0.84500
O1569       O  0.10065915  0.73996305  0.18199678    -0.79600
O1570       O  0.10922087  0.73389513  0.19802574    -0.89800
C1571       C  0.04034269  0.75240751  0.16102801     0.84100
O1572       O  0.05727162  0.70194373  0.19604283    -0.68000
O1573       O  0.92170510  0.75836376  0.17576148    -0.87300
C1574       C  0.04904131  0.69737097  0.18729597     0.84900
C1575       C  0.12190695  0.73662977  0.18940013     1.06500
H1576       H  0.98280579  0.72974020  0.17784681     0.38300
O1577       O  0.99241654  0.74378873  0.17954203    -1.10000
O1578       O  0.98058250  0.77903319  0.19293890    -0.66600
Ni1579     Ni  0.98249909  0.74770906  0.19301317     1.26300
O1580       O  0.04209046  0.71147390  0.18089791    -0.66900
O1581       O  0.92840313  0.74706484  0.19129634    -0.79200
C1582       C  0.99102502  0.73594284  0.21231519     0.84300
O1583       O  0.97590084  0.74993306  0.20683970    -0.66300
Ni1584     Ni  0.97115625  0.76267095  0.17023659     1.27400
Ni1585     Ni  0.04640115  0.74220890  0.18052872     1.26100
H1586       H  0.04577882  0.76176310  0.19547228     0.38800
O1587       O  0.51973081  0.72086963  0.20832619    -0.81100
O1588       O  0.54947403  0.73977684  0.16622223    -0.65800
O1589       O  0.53846698  0.74745980  0.19347935    -1.12400
C1590       C  0.40651254  0.74325022  0.18582612     1.05800
O1591       O  0.50662771  0.76491896  0.16333302    -0.79000
O1592       O  0.46297093  0.78305800  0.17741741    -0.66600
Ni1593     Ni  0.56575330  0.73012491  0.20237391     1.34900
C1594       C  0.47040520  0.78907961  0.18605790     0.84500
O1595       O  0.60033712  0.74533391  0.18075519    -0.79600
O1596       O  0.61267489  0.73878742  0.19665410    -0.89800
C1597       C  0.53259756  0.75232693  0.16040980     0.84100
O1598       O  0.56740723  0.70370211  0.19538302    -0.68000
O1599       O  0.41653560  0.74812550  0.17716326    -0.87300
C1600       C  0.55972570  0.69855672  0.18667346     0.84900
C1601       C  0.62319498  0.74318056  0.18797170     1.06500
H1602       H  0.48493322  0.72536294  0.17873890     0.38300
O1603       O  0.49134551  0.74021613  0.17994290    -1.10000
O1604       O  0.48002751  0.77598259  0.19275147    -0.66600
Ni1605     Ni  0.48420594  0.74498599  0.19357962     1.26300
O1606       O  0.54953334  0.71209811  0.18029303    -0.66900
O1607       O  0.42956458  0.74205116  0.19303121    -0.79200
C1608       C  0.50026698  0.73481166  0.21273264     0.84300
O1609       O  0.48169584  0.74815929  0.20758618    -0.66300
Ni1610     Ni  0.46270402  0.75619202  0.17074636     1.27400
Ni1611     Ni  0.54562490  0.74293842  0.17996582     1.26100
H1612       H  0.54533309  0.76216820  0.19487295     0.38800
O1613       O  0.12179501  0.73082188  0.04081105    -0.81100
O1614       O  0.08489548  0.73938039  0.08342880    -0.65800
O1615       O  0.09795696  0.75304806  0.05665490    -1.12400
C1616       C  0.22835901  0.75530229  0.06578854     1.05800
O1617       O  0.12097880  0.76690043  0.08746875    -0.79000
O1618       O  0.16210326  0.78994539  0.07480747    -0.66600
Ni1619     Ni  0.07424203  0.73559214  0.04696152     1.34900
C1620       C  0.16024862  0.79657471  0.06609632     0.84500
O1621       O  0.03556248  0.74491034  0.06877145    -0.79600
O1622       O  0.02530718  0.73933625  0.05272741    -0.89800
C1623       C  0.09810442  0.75206244  0.08977532     0.84100
O1624       O  0.07826763  0.70809068  0.05284902    -0.68000
O1625       O  0.21586483  0.75900785  0.07435932    -0.87300
C1626       C  0.08567776  0.70185648  0.06141362     0.84900
C1627       C  0.01368525  0.74212596  0.06143819     1.06500
H1628       H  0.15335133  0.73149900  0.07133127     0.38300
O1629       O  0.14426732  0.74599869  0.07044651    -1.10000
O1630       O  0.15454279  0.78411024  0.05885748    -0.66600
Ni1631     Ni  0.15266036  0.75319327  0.05708821     1.26300
O1632       O  0.09221416  0.71479872  0.06835044    -0.66900
O1633       O  0.20709513  0.75249711  0.05831039    -0.79200
C1634       C  0.13983663  0.74663310  0.03738767     0.84300
O1635       O  0.15703038  0.75909417  0.04326103    -0.66300
Ni1636     Ni  0.16744598  0.76238382  0.08047496     1.27400
Ni1637     Ni  0.09003323  0.74550698  0.06991272     1.26100
H1638       H  0.08908950  0.76757836  0.05573299     0.38800
O1639       O  0.61804451  0.72985954  0.03972757    -0.81100
O1640       O  0.58223121  0.74362624  0.08286313    -0.65800
O1641       O  0.59966489  0.75436796  0.05586847    -1.12400
C1642       C  0.72878226  0.74933242  0.06536452     1.05800
O1643       O  0.62394279  0.76851876  0.08701390    -0.79000
O1644       O  0.66356112  0.78981238  0.07318470    -0.66600
Ni1645     Ni  0.57255633  0.73836524  0.04619912     1.34900
C1646       C  0.66457782  0.79463563  0.06420644     0.84500
O1647       O  0.53499128  0.75149390  0.06792031    -0.79600
O1648       O  0.52498568  0.74588874  0.05190055    -0.89800
C1649       C  0.59860282  0.75492732  0.08928492     0.84100
O1650       O  0.57155349  0.71098630  0.05249701    -0.68000
O1651       O  0.71681619  0.75789134  0.07323149    -0.87300
C1652       C  0.57724691  0.70493423  0.06120707     0.84900
C1653       C  0.51322371  0.74971676  0.06050798     1.06500
H1654       H  0.64926235  0.73080753  0.07165534     0.38300
O1655       O  0.64311286  0.74555925  0.07015921    -1.10000
O1656       O  0.66207947  0.78070715  0.05745535    -0.66600
Ni1657     Ni  0.65356676  0.75006146  0.05667134     1.26300
O1658       O  0.58520828  0.71787839  0.06805545    -0.66900
O1659       O  0.70686056  0.74466269  0.05825367    -0.79200
C1660       C  0.64189829  0.74350121  0.03673814     0.84300
O1661       O  0.66076317  0.75431776  0.04289057    -0.66300
Ni1662     Ni  0.66899844  0.76278463  0.07955175     1.27400
Ni1663     Ni  0.58921997  0.74859308  0.06927214     1.26100
H1664       H  0.59458850  0.76939206  0.05469838     0.38800
C1665       C  0.97234558  0.74184250  0.06296953     0.01100
C1666       C  0.95155756  0.72297422  0.06094267     0.03900
C1667       C  0.91177954  0.72315366  0.06147072    -0.12100
C1668       C  0.89262664  0.74219406  0.06398112     0.23200
C1669       C  0.91343549  0.76082154  0.06635972    -0.12700
C1670       C  0.95323980  0.76068191  0.06579190     0.04600
C1671       C  0.85058251  0.74258171  0.06417111     0.27100
C1672       C  0.82995192  0.74535712  0.05548014    -0.13400
C1673       C  0.79005363  0.74625515  0.05566676     0.05100
C1674       C  0.77043721  0.74504214  0.06469113    -0.09400
C1675       C  0.79157945  0.74069897  0.07332532     0.06000
C1676       C  0.83136773  0.73971079  0.07302745    -0.13700
Br1677     Br  0.88726557  0.78653817  0.07034869    -0.05800
Br1678     Br  0.97756708  0.69672472  0.05759490    -0.00200
Br1679     Br  0.76361906  0.74912235  0.04339228     0.00300
Br1680     Br  0.86014478  0.73437496  0.08477865    -0.04100
Br1681     Br  0.98151896  0.78660984  0.06831620     0.00400
Br1682     Br  0.88327910  0.69732563  0.05882864    -0.03400
Br1683     Br  0.85685376  0.74832710  0.04329557    -0.04300
Br1684     Br  0.76703065  0.73447592  0.08563478    -0.00300
C1685       C  0.27008110  0.75450705  0.06467341     0.01100
C1686       C  0.29209903  0.74247722  0.07134579     0.03900
C1687       C  0.33184298  0.74294112  0.07080032    -0.12100
C1688       C  0.34996878  0.75477548  0.06340686     0.23200
C1689       C  0.32819862  0.76681511  0.05675088    -0.12700
C1690       C  0.28839997  0.76712312  0.05752969     0.04600
C1691       C  0.39191049  0.75396983  0.06256845     0.27100
C1692       C  0.41450626  0.77080782  0.06626601    -0.13400
C1693       C  0.45433993  0.76952162  0.06573060     0.05100
C1694       C  0.47167104  0.75106069  0.06177775    -0.09400
C1695       C  0.44888459  0.73397588  0.05834381     0.06000
C1696       C  0.40923393  0.73567709  0.05851270    -0.13700
Br1697     Br  0.35305538  0.78296982  0.04660387    -0.05800
Br1698     Br  0.26825133  0.72486782  0.08120018    -0.00200
Br1699     Br  0.48486922  0.79348841  0.06991681     0.00300
Br1700     Br  0.37843516  0.71295107  0.05310471    -0.04100
Br1701     Br  0.25947990  0.78637323  0.04938958     0.00400
Br1702     Br  0.36181827  0.72755279  0.08028780    -0.03400
Br1703     Br  0.39067553  0.79558527  0.07205866    -0.04300
Br1704     Br  0.47181112  0.70761823  0.05379737    -0.00300
C1705       C  0.58813166  0.75265243  0.09960702     0.01100
C1706       C  0.55384563  0.76117233  0.10309291     0.03900
C1707       C  0.54613149  0.76102762  0.11314563    -0.12100
C1708       C  0.57213560  0.75170055  0.11968482     0.23200
C1709       C  0.60572916  0.74233649  0.11615136    -0.12700
C1710       C  0.61377978  0.74288793  0.10611395     0.04600
C1711       C  0.56351925  0.75142456  0.13024710     0.27100
C1712       C  0.57755104  0.76778507  0.13637567    -0.13400
C1713       C  0.56708632  0.76830525  0.14626952     0.05100
C1714       C  0.54328530  0.75222357  0.15006462    -0.09400
C1715       C  0.52952887  0.73578026  0.14396190     0.06000
C1716       C  0.53957922  0.73539527  0.13405492    -0.13700
Br1717     Br  0.64062539  0.72890182  0.12508495    -0.05800
Br1718     Br  0.51775215  0.77323798  0.09411688    -0.00200
Br1719     Br  0.58491525  0.79108141  0.15461519     0.00300
Br1720     Br  0.52013193  0.71315542  0.12561861    -0.04100
Br1721     Br  0.65938045  0.72968544  0.10118778     0.00400
Br1722     Br  0.50034668  0.77403012  0.11803991    -0.03400
Br1723     Br  0.61075056  0.78953360  0.13115904    -0.04300
Br1724     Br  0.49566205  0.71427239  0.14913061    -0.00300
C1725       C  0.86617225  0.75078425  0.18464354     0.01100
C1726       C  0.84675000  0.76020099  0.19259243     0.03900
C1727       C  0.80682340  0.76017726  0.19280507    -0.12100
C1728       C  0.78613064  0.75061518  0.18516375     0.23200
C1729       C  0.80534301  0.74106639  0.17729933    -0.12700
C1730       C  0.84513659  0.74119120  0.17699799     0.04600
C1731       C  0.74421778  0.74901777  0.18570625     0.27100
C1732       C  0.72772008  0.73046032  0.18971268    -0.13400
C1733       C  0.68817416  0.72818960  0.18990851     0.05100
C1734       C  0.66461003  0.74486000  0.18641093    -0.09400
C1735       C  0.68116888  0.76339105  0.18228553     0.06000
C1736       C  0.72096833  0.76538893  0.18189013    -0.13700
Br1737     Br  0.77675723  0.72733036  0.16702763    -0.05800
Br1738     Br  0.87432832  0.77398749  0.20303348    -0.00200
Br1739     Br  0.66655839  0.70162995  0.19464854     0.00300
Br1740     Br  0.74392591  0.79062627  0.17628290    -0.04100
Br1741     Br  0.87041451  0.72716114  0.16623680     0.00400
Br1742     Br  0.78013235  0.77314523  0.20357285    -0.03400
Br1743     Br  0.75962309  0.70817911  0.19503795    -0.04300
Br1744     Br  0.64964186  0.78645711  0.17762263    -0.00300
C1745       C  0.16358244  0.73524139  0.18803697     0.01100
C1746       C  0.18391230  0.71811816  0.19237431     0.03900
C1747       C  0.22375939  0.71788614  0.19213317    -0.12100
C1748       C  0.24358924  0.73420998  0.18720951     0.23200
C1749       C  0.22337505  0.75037549  0.18224369    -0.12700
C1750       C  0.18351948  0.75105466  0.18272640     0.04600
C1751       C  0.28568793  0.73492292  0.18753643     0.27100
C1752       C  0.30400284  0.74913579  0.19399495    -0.13400
C1753       C  0.34364864  0.75150870  0.19368227     0.05100
C1754       C  0.36554666  0.73880628  0.18729522    -0.09400
C1755       C  0.34719095  0.72355183  0.18128427     0.06000
C1756       C  0.30737565  0.72205663  0.18120627    -0.13700
Br1757     Br  0.25066767  0.77181375  0.17490308    -0.05800
Br1758     Br  0.15742331  0.69420033  0.19823461    -0.00200
Br1759     Br  0.36697023  0.77371979  0.20129887     0.00300
Br1760     Br  0.28230935  0.70318038  0.17209746    -0.04100
Br1761     Br  0.15683510  0.77435022  0.17651204     0.00400
Br1762     Br  0.25140652  0.69545625  0.19873619    -0.03400
Br1763     Br  0.27434414  0.76591623  0.20304700    -0.04300
Br1764     Br  0.37664786  0.70450285  0.17317616    -0.00300
C1765       C  0.08730387  0.74967376  0.10000757     0.01100
C1766       C  0.10881622  0.73610436  0.10605222     0.03900
C1767       C  0.10150413  0.73541257  0.11610468    -0.12100
C1768       C  0.07231771  0.74810948  0.12006041     0.23200
C1769       C  0.05013123  0.76125754  0.11395231    -0.12700
C1770       C  0.05786766  0.76216854  0.10392091     0.04600
C1771       C  0.06599658  0.74848299  0.13069457     0.27100
C1772       C  0.04482558  0.73206877  0.13518255    -0.13400
C1773       C  0.03731830  0.73311464  0.14522072     0.05100
C1774       C  0.05052934  0.75074101  0.15071379    -0.09400
C1775       C  0.07231190  0.76690783  0.14627292     0.06000
C1776       C  0.08031166  0.76569514  0.13626818    -0.13700
Br1777     Br  0.00995449  0.77847444  0.11941332    -0.05800
Br1778     Br  0.14929890  0.71915922  0.10056059    -0.00200
Br1779     Br  0.00729825  0.71095374  0.15135177     0.00300
Br1780     Br  0.11059799  0.78768151  0.13014128    -0.04100
Br1781     Br  0.02904383  0.78092654  0.09556183     0.00400
Br1782     Br  0.13241292  0.71784506  0.12452187    -0.03400
Br1783     Br  0.02527664  0.70853856  0.12751314    -0.04300
Br1784     Br  0.09179561  0.79041810  0.15394819    -0.00300
C1785       C  0.71986777  0.92866488  0.06086743     0.01100
C1786       C  0.69939310  0.92028096  0.05284278     0.03900
C1787       C  0.68951663  0.89834198  0.05255956    -0.12100
C1788       C  0.70231431  0.88431384  0.05988628     0.23200
C1789       C  0.72637252  0.89211310  0.06727493    -0.12700
C1790       C  0.73484663  0.91419944  0.06783263     0.04600
C1791       C  0.69015038  0.86141292  0.05993817     0.27100
C1792       C  0.65673752  0.85531864  0.06483935    -0.13400
C1793       C  0.64680559  0.83346384  0.06559689     0.05100
C1794       C  0.67056392  0.81753415  0.06161526    -0.09400
C1795       C  0.70255502  0.82379077  0.05609696     0.06000
C1796       C  0.71242200  0.84566216  0.05532532    -0.13700
Br1797     Br  0.74675326  0.87247572  0.07680343    -0.05800
Br1798     Br  0.68413678  0.93841363  0.04221750    -0.00200
Br1799     Br  0.59985297  0.82527259  0.07175770     0.00300
Br1800     Br  0.75737322  0.85415111  0.04830556    -0.04100
Br1801     Br  0.76805070  0.92443356  0.07802804     0.00400
Br1802     Br  0.65671318  0.88754264  0.04241660    -0.03400
Br1803     Br  0.62522823  0.87695579  0.07076956    -0.04300
Br1804     Br  0.73415724  0.80256994  0.04994022    -0.00300
C1805       C  0.40673694  0.99884965  0.05907366     0.01100
C1806       C  0.42595947  0.98075791  0.06274701     0.03900
C1807       C  0.46586330  0.98073404  0.06322847    -0.12100
C1808       C  0.48661242  0.99881110  0.06006312     0.23200
C1809       C  0.46745826  0.01672751  0.05624962    -0.12700
C1810       C  0.42774267  0.01669732  0.05565049     0.04600
C1811       C  0.52867773  0.99887837  0.06043527     0.27100
C1812       C  0.54761963  0.00900687  0.06820155    -0.13400
C1813       C  0.58746678  0.00919810  0.06851748     0.05100
C1814       C  0.60885158  0.99866742  0.06118021    -0.09400
C1815       C  0.58958601  0.99009615  0.05299134     0.06000
C1816       C  0.54967044  0.99001316  0.05270124    -0.13700
Br1817     Br  0.49596777  0.04127023  0.05172688    -0.05800
Br1818     Br  0.39781257  0.95543510  0.06635778    -0.00200
Br1819     Br  0.61240962  0.02549817  0.07867136     0.00300
Br1820     Br  0.52325074  0.97774798  0.04168874    -0.04100
Br1821     Br  0.40255613  0.04134276  0.05005823     0.00400
Br1822     Br  0.49233048  0.95580274  0.06800259    -0.03400
Br1823     Br  0.51867272  0.02273872  0.07839105    -0.04300
Br1824     Br  0.61678067  0.97859174  0.04202872    -0.00300
C1825       C  0.10865216  0.00338589  0.06561133     0.01100
C1826       C  0.08870397  0.01715391  0.07198723     0.03900
C1827       C  0.04882932  0.01752782  0.07187961    -0.12100
C1828       C  0.02869523  0.00473900  0.06515495     0.23200
C1829       C  0.04858566  0.99167918  0.05851482    -0.12700
C1830       C  0.08835199  0.99057865  0.05888673     0.04600
C1831       C  0.98668108  0.00571733  0.06469650     0.27100
C1832       C  0.96449092  0.98864860  0.06832495    -0.13400
C1833       C  0.92491103  0.98877189  0.06702069     0.05100
C1834       C  0.90708684  0.00659405  0.06262425    -0.09400
C1835       C  0.92936675  0.02405661  0.05935280     0.06000
C1836       C  0.96903952  0.02320315  0.06005743    -0.13700
Br1837     Br  0.02111768  0.97559607  0.04875752    -0.05800
Br1838     Br  0.11596570  0.03629593  0.08057301    -0.00200
Br1839     Br  0.89591035  0.96354643  0.07031978     0.00300
Br1840     Br  0.99954673  0.04536012  0.05410366    -0.04100
Br1841     Br  0.11443888  0.97044331  0.05054172     0.00400
Br1842     Br  0.02166733  0.03563397  0.08091250    -0.03400
Br1843     Br  0.98860468  0.96466122  0.07470642    -0.04300
Br1844     Br  0.90590041  0.04955150  0.05406281    -0.00300
C1845       C  0.20029175  0.93276964  0.06402049     0.01100
C1846       C  0.22373340  0.91935189  0.05834534     0.03900
C1847       C  0.21555297  0.89726186  0.05758979    -0.12100
C1848       C  0.18467538  0.88839650  0.06272875     0.23200
C1849       C  0.16075339  0.90185345  0.06820161    -0.12700
C1850       C  0.16791895  0.92402578  0.06864614     0.04600
C1851       C  0.17921280  0.86474934  0.06306619     0.27100
C1852       C  0.15120497  0.85467339  0.05733598    -0.13400
C1853       C  0.14542074  0.83227592  0.05799413     0.05100
C1854       C  0.16740390  0.81989923  0.06452556    -0.09400
C1855       C  0.19686968  0.83006926  0.06987129     0.06000
C1856       C  0.20208029  0.85239174  0.06929284    -0.13700
Br1857     Br  0.11912352  0.88971001  0.07548698    -0.05800
Br1858     Br  0.26858836  0.93071274  0.05219635    -0.00200
Br1859     Br  0.10696956  0.81895453  0.05003520     0.00300
Br1860     Br  0.24026656  0.86627405  0.07722390    -0.04100
Br1861     Br  0.13238225  0.94236522  0.07542471     0.00400
Br1862     Br  0.24748209  0.87883130  0.04983419    -0.03400
Br1863     Br  0.12030112  0.87182593  0.04875139    -0.04300
Br1864     Br  0.23256395  0.81357409  0.07753185    -0.00300
C1865       C  0.92261200  0.92732867  0.18761600     0.01100
C1866       C  0.90080085  0.91440519  0.19395709     0.03900
C1867       C  0.91212416  0.89311890  0.19604296    -0.12100
C1868       C  0.94386912  0.88405867  0.19131336     0.23200
C1869       C  0.96629986  0.89716402  0.18523167    -0.12700
C1870       C  0.95633965  0.91879563  0.18361213     0.04600
C1871       C  0.95015889  0.86025743  0.19140939     0.27100
C1872       C  0.98128528  0.85085661  0.19630618    -0.13400
C1873       C  0.99009418  0.82884866  0.19487545     0.05100
C1874       C  0.96642900  0.81585773  0.18902021    -0.09400
C1875       C  0.93305698  0.82493279  0.18506752     0.06000
C1876       C  0.92598341  0.84705933  0.18585113    -0.13700
Br1877     Br  0.00967685  0.88513880  0.17862929    -0.05800
Br1878     Br  0.85339491  0.92488686  0.19901480    -0.00200
Br1879     Br  0.03565315  0.81699702  0.20037323     0.00300
Br1880     Br  0.88416067  0.85947082  0.17870730    -0.04100
Br1881     Br  0.98968948  0.93680293  0.17599746     0.00400
Br1882     Br  0.88336774  0.87592754  0.20510189    -0.03400
Br1883     Br  0.01205167  0.86831256  0.20479590    -0.04300
Br1884     Br  0.89557273  0.80704749  0.17881098    -0.00300
C1885       C  0.78783737  0.99318020  0.09851014     0.01100
C1886       C  0.76594935  0.00563378  0.10496319     0.03900
C1887       C  0.77289566  0.00477290  0.11505934    -0.12100
C1888       C  0.80304586  0.99229049  0.11867609     0.23200
C1889       C  0.82609907  0.98064990  0.11216582    -0.12700
C1890       C  0.81772078  0.98053052  0.10213292     0.04600
C1891       C  0.80976516  0.99060659  0.12933318     0.27100
C1892       C  0.83241175  0.00594239  0.13414495    -0.13400
C1893       C  0.84032148  0.00361408  0.14414431     0.05100
C1894       C  0.82609124  0.98578895  0.14931339    -0.09400
C1895       C  0.80343750  0.97048722  0.14452644     0.06000
C1896       C  0.79493716  0.97300677  0.13456547    -0.13700
Br1897     Br  0.86898699  0.96479658  0.11707409    -0.05800
Br1898     Br  0.72596673  0.02356612  0.09990719    -0.00200
Br1899     Br  0.87167407  0.02447371  0.15074705     0.00300
Br1900     Br  0.76342658  0.95222374  0.12800320    -0.04100
Br1901     Br  0.84598379  0.96231607  0.09345815     0.00400
Br1902     Br  0.74039312  0.02004081  0.12396734    -0.03400
Br1903     Br  0.85349100  0.02970839  0.12694053    -0.04300
Br1904     Br  0.78476824  0.94594453  0.15160834    -0.00300
C1905       C  0.50600186  0.97960703  0.18651555     0.01100
C1906       C  0.52691666  0.99775193  0.18952311     0.03900
C1907       C  0.56689999  0.99733126  0.18934654    -0.12100
C1908       C  0.58633959  0.97857732  0.18644700     0.23200
C1909       C  0.56553971  0.96015506  0.18383088    -0.12700
C1910       C  0.52563077  0.96077525  0.18365887     0.04600
C1911       C  0.62864093  0.97824512  0.18631015     0.27100
C1912       C  0.64876305  0.98109963  0.17750634    -0.13400
C1913       C  0.68869750  0.98279767  0.17756683     0.05100
C1914       C  0.70873871  0.98175783  0.18648464    -0.09400
C1915       C  0.68853061  0.97720220  0.19517658     0.06000
C1916       C  0.64876408  0.97563774  0.19508129    -0.13700
Br1917     Br  0.59197787  0.93405347  0.18046747    -0.05800
Br1918     Br  0.50091270  0.02370159  0.19325305    -0.00200
Br1919     Br  0.71520015  0.98765689  0.16546308     0.00300
Br1920     Br  0.62146978  0.97024988  0.20703452    -0.04100
Br1921     Br  0.49812880  0.93564453  0.17939018     0.00400
Br1922     Br  0.59533244  0.02271206  0.19277210    -0.03400
Br1923     Br  0.62129034  0.98342429  0.16539600    -0.04300
Br1924     Br  0.71515540  0.97227620  0.20729797    -0.00300
C1925       C  0.00559519  0.00321934  0.18444352     0.01100
C1926       C  0.02447975  0.01452087  0.17690910     0.03900
C1927       C  0.06441659  0.01567893  0.17672394    -0.12100
C1928       C  0.08592330  0.00602051  0.18418095     0.23200
C1929       C  0.06710387  0.99580032  0.19198369    -0.12700
C1930       C  0.02720452  0.99419492  0.19208038     0.04600
C1931       C  0.12830120  0.00620955  0.18383969     0.27100
C1932       C  0.14825210  0.98810772  0.18038197    -0.13400
C1933       C  0.18809556  0.98705551  0.18123019     0.05100
C1934       C  0.20843889  0.00427090  0.18543570    -0.09400
C1935       C  0.18852611  0.02297837  0.18830915     0.06000
C1936       C  0.14869549  0.02389586  0.18752339    -0.13700
Br1937     Br  0.09640143  0.98345848  0.20244487    -0.05800
Br1938     Br  0.99562317  0.02880067  0.16685845    -0.00200
Br1939     Br  0.21432020  0.96133078  0.17726537     0.00300
Br1940     Br  0.12172993  0.04926499  0.19165106    -0.04100
Br1941     Br  0.00267713  0.97809114  0.20231108     0.00400
Br1942     Br  0.08989599  0.02996081  0.16610502    -0.03400
Br1943     Br  0.12060755  0.96456848  0.17462918    -0.04300
Br1944     Br  0.21567500  0.04766719  0.19320904    -0.00300
C1945       C  0.39634363  0.91982299  0.18858029     0.01100
C1946       C  0.37798929  0.90335606  0.18332358     0.03900
C1947       C  0.38979662  0.88188045  0.18438644    -0.12100
C1948       C  0.42137693  0.87692675  0.19026943     0.23200
C1949       C  0.43866067  0.89320223  0.19584591    -0.12700
C1950       C  0.42518215  0.91442971  0.19532012     0.04600
C1951       C  0.43830306  0.85506340  0.18990273     0.27100
C1952       C  0.43312367  0.84045140  0.19761725    -0.13400
C1953       C  0.44844220  0.81956679  0.19702038     0.05100
C1954       C  0.46569409  0.81247476  0.18825023    -0.09400
C1955       C  0.47355821  0.82784156  0.18089621     0.06000
C1956       C  0.46032725  0.84905843  0.18179869    -0.13700
Br1957     Br  0.48311616  0.88676761  0.20350626    -0.05800
Br1958     Br  0.33705404  0.91029109  0.17455609    -0.00200
Br1959     Br  0.44666073  0.80157690  0.20844302     0.00300
Br1960     Br  0.47187047  0.87002352  0.17184572    -0.04100
Br1961     Br  0.44886699  0.93619561  0.20331944     0.00400
Br1962     Br  0.36393824  0.85924720  0.17744726    -0.03400
Br1963     Br  0.40344031  0.84884309  0.20880695    -0.04300
Br1964     Br  0.50417527  0.82038391  0.16971955    -0.00300
C1965       C  0.29770735  0.99567367  0.09874902     0.01100
C1966       C  0.27341230  0.00577797  0.10547767     0.03900
C1967       C  0.28175568  0.00521221  0.11548153    -0.12100
C1968       C  0.31413329  0.99425865  0.11879794     0.23200
C1969       C  0.33915396  0.98474855  0.11204718    -0.12700
C1970       C  0.33100079  0.98553638  0.10200133     0.04600
C1971       C  0.32068717  0.99194467  0.12941371     0.27100
C1972       C  0.34353421  0.00687492  0.13440299    -0.13400
C1973       C  0.34873192  0.00496220  0.14453133     0.05100
C1974       C  0.33095356  0.98815926  0.14968796    -0.09400
C1975       C  0.30821819  0.97318307  0.14469319     0.06000
C1976       C  0.30294534  0.97513102  0.13456681    -0.13700
Br1977     Br  0.38372512  0.97001675  0.11663489    -0.05800
Br1978     Br  0.22821340  0.02009093  0.10095539    -0.00200
Br1979     Br  0.38150915  0.02483227  0.15129381     0.00300
Br1980     Br  0.27107273  0.95495476  0.12771935    -0.04100
Br1981     Br  0.36411287  0.97175869  0.09274752     0.00400
Br1982     Br  0.24834561  0.01891189  0.12471223    -0.03400
Br1983     Br  0.36744492  0.02995125  0.12732054    -0.04300
Br1984     Br  0.28359888  0.95036242  0.15178101    -0.00300
C1985       C  0.82307006  0.18270458  0.06176806     0.01100
C1986       C  0.79923010  0.17527875  0.06934717     0.03900
C1987       C  0.79234941  0.15310135  0.07045230    -0.12100
C1988       C  0.80881735  0.13829788  0.06395093     0.23200
C1989       C  0.83319110  0.14563691  0.05653638    -0.12700
C1990       C  0.84078750  0.16769464  0.05554851     0.04600
C1991       C  0.79984837  0.11501627  0.06459795     0.27100
C1992       C  0.82123271  0.10147719  0.07071393    -0.13400
C1993       C  0.81689681  0.07900629  0.07010884     0.05100
C1994       C  0.79126728  0.07005065  0.06331716    -0.09400
C1995       C  0.76759553  0.08373336  0.05783842     0.06000
C1996       C  0.77205078  0.10614386  0.05842631    -0.13700
Br1997     Br  0.85533771  0.12537053  0.04752838    -0.05800
Br1998     Br  0.77386348  0.19535172  0.07787031    -0.00200
Br1999     Br  0.84812768  0.06063441  0.07808850     0.00300
Br2000     Br  0.74147978  0.12477665  0.05040493    -0.04100
Br2001     Br  0.87681791  0.17715337  0.04589371     0.00400
Br2002     Br  0.75926883  0.14290275  0.08063544    -0.03400
Br2003     Br  0.85800309  0.11378301  0.07949429    -0.04300
Br2004     Br  0.72873175  0.07173264  0.04958404    -0.00300
C2005       C  0.30571476  0.06681123  0.06228205     0.01100
C2006       C  0.28159827  0.08146046  0.05754367     0.03900
C2007       C  0.28776628  0.10360868  0.05847768    -0.12100
C2008       C  0.31636018  0.11125661  0.06474154     0.23200
C2009       C  0.33874897  0.09667683  0.07006729    -0.12700
C2010       C  0.33410247  0.07443513  0.06865769     0.04600
C2011       C  0.32380652  0.13461610  0.06523357     0.27100
C2012       C  0.35319415  0.14350725  0.05957801    -0.13400
C2013       C  0.35658757  0.16589677  0.05874030     0.05100
C2014       C  0.33039686  0.17938634  0.06345815    -0.09400
C2015       C  0.30265408  0.17055731  0.06966064     0.06000
C2016       C  0.29933058  0.14814378  0.07053722    -0.13700
Br2017     Br  0.37618644  0.10730940  0.07910591    -0.05800
Br2018     Br  0.23862330  0.07123385  0.05025111    -0.00200
Br2019     Br  0.39741219  0.17818171  0.05125720     0.00300
Br2020     Br  0.26021288  0.13586753  0.07861964    -0.04100
Br2021     Br  0.36799306  0.05461222  0.07504183     0.00400
Br2022     Br  0.25799652  0.12348361  0.05085635    -0.03400
Br2023     Br  0.38762765  0.12497762  0.05260011    -0.04300
Br2024     Br  0.26795580  0.18909648  0.07654228    -0.00300
C2025       C  0.72041289  0.24906333  0.06014535     0.01100
C2026       C  0.70028321  0.23109837  0.05654426     0.03900
C2027       C  0.66057345  0.23089957  0.05669470    -0.12100
C2028       C  0.64066202  0.24870004  0.06036425     0.23200
C2029       C  0.66060000  0.26655362  0.06408974    -0.12700
C2030       C  0.70050502  0.26665533  0.06407702     0.04600
C2031       C  0.59875885  0.24801561  0.06080188     0.27100
C2032       C  0.57688995  0.25204412  0.05240916    -0.13400
C2033       C  0.53702779  0.25112281  0.05286604     0.05100
C2034       C  0.51888548  0.24704463  0.06190438    -0.09400
C2035       C  0.54133569  0.24122650  0.07008137     0.06000
C2036       C  0.58098115  0.24214102  0.06955667    -0.13700
Br2037     Br  0.63296272  0.29090486  0.06908038    -0.05800
Br2038     Br  0.72694950  0.20622883  0.05165764    -0.00200
Br2039     Br  0.50850861  0.25507221  0.04097560     0.00300
Br2040     Br  0.61131029  0.23552802  0.08090493    -0.04100
Br2041     Br  0.72767768  0.29114287  0.06909303     0.00400
Br2042     Br  0.63328845  0.20609042  0.05195823    -0.03400
Br2043     Br  0.60190264  0.25939918  0.04034559    -0.04300
Br2044     Br  0.51854433  0.23020025  0.08190754    -0.00300
C2045       C  0.01848822  0.24959666  0.06505306     0.01100
C2046       C  0.03650741  0.23731506  0.07241786     0.03900
C2047       C  0.07629044  0.23607686  0.07283302    -0.12100
C2048       C  0.09843116  0.24680143  0.06584125     0.23200
C2049       C  0.08066262  0.25866403  0.05837913    -0.12700
C2050       C  0.04084575  0.26013991  0.05798614     0.04600
C2051       C  0.14042167  0.24492223  0.06600168     0.27100
C2052       C  0.16276294  0.26056380  0.07072017    -0.13400
C2053       C  0.20255137  0.26027687  0.06973802     0.05100
C2054       C  0.22016751  0.24410284  0.06411253    -0.09400
C2055       C  0.19761530  0.22766292  0.05990319     0.06000
C2056       C  0.15798362  0.22811864  0.06086964    -0.13700
Br2057     Br  0.11130564  0.27316830  0.04877054    -0.05800
Br2058     Br  0.00690116  0.22147127  0.08184625    -0.00200
Br2059     Br  0.23227584  0.28301576  0.07548278     0.00300
Br2060     Br  0.12730764  0.20584296  0.05503957    -0.04100
Br2061     Br  0.01741259  0.27769392  0.04809501     0.00400
Br2062     Br  0.10075930  0.21978978  0.08301062    -0.03400
Br2063     Br  0.13846135  0.28256800  0.07837597    -0.04300
Br2064     Br  0.22048901  0.20410841  0.05283655    -0.00300
C2065       C  0.79348411  0.16978824  0.18579467     0.01100
C2066       C  0.81055296  0.16051361  0.17743754     0.03900
C2067       C  0.81050430  0.13802368  0.17617842    -0.12100
C2068       C  0.79449811  0.12461006  0.18335045     0.23200
C2069       C  0.77566091  0.13384696  0.19138523    -0.12700
C2070       C  0.77459677  0.15631464  0.19252207     0.04600
C2071       C  0.80068533  0.10093841  0.18303634     0.27100
C2072       C  0.77080747  0.08681315  0.18065400    -0.13400
C2073       C  0.77532681  0.06448934  0.18192389     0.05100
C2074       C  0.81046332  0.05612725  0.18502079    -0.09400
C2075       C  0.84102130  0.07014728  0.18677165     0.06000
C2076       C  0.83600921  0.09248723  0.18594331    -0.13700
Br2077     Br  0.75258220  0.11561737  0.20110479    -0.05800
Br2078     Br  0.83667440  0.17813012  0.16798819    -0.00200
Br2079     Br  0.73236096  0.04562035  0.18034939     0.00300
Br2080     Br  0.87714848  0.11158552  0.18925699    -0.04100
Br2081     Br  0.74604005  0.16848154  0.20319602     0.00400
Br2082     Br  0.83356236  0.12533451  0.16478997    -0.03400
Br2083     Br  0.72347928  0.09815471  0.17589371    -0.04300
Br2084     Br  0.88972348  0.05863675  0.19043167    -0.00300
C2085       C  0.78871982  0.24364594  0.14928917     0.01100
C2086       C  0.80823675  0.26160758  0.14560303     0.03900
C2087       C  0.81788071  0.26257195  0.13566501    -0.12100
C2088       C  0.80851467  0.24541509  0.12939819     0.23200
C2089       C  0.79040361  0.22702407  0.13317031    -0.12700
C2090       C  0.78031467  0.22618546  0.14310012     0.04600
C2091       C  0.81713935  0.24697631  0.11882066     0.27100
C2092       C  0.78887230  0.25367760  0.11222389    -0.13400
C2093       C  0.79734242  0.25588794  0.10223682     0.05100
C2094       C  0.83432576  0.25184805  0.09885688    -0.09400
C2095       C  0.86255210  0.24508071  0.10546204     0.06000
C2096       C  0.85387380  0.24245187  0.11540040    -0.13700
Br2097     Br  0.77924360  0.20313626  0.12467472    -0.05800
Br2098     Br  0.82260190  0.28463076  0.15427090    -0.00200
Br2099     Br  0.75881298  0.26541899  0.09327816     0.00300
Br2100     Br  0.89228342  0.23276195  0.12438555    -0.04100
Br2101     Br  0.75362165  0.20153248  0.14814309     0.00400
Br2102     Br  0.84346790  0.28754341  0.13057815    -0.03400
Br2103     Br  0.73885393  0.26042932  0.11696849    -0.04300
Br2104     Br  0.91307719  0.23894246  0.10085295    -0.00300
C2105       C  0.30974303  0.17545493  0.18748839     0.01100
C2106       C  0.33904216  0.16808447  0.18133917     0.03900
C2107       C  0.34493570  0.14587334  0.18010229    -0.12100
C2108       C  0.32196146  0.13105714  0.18512786     0.23200
C2109       C  0.29285714  0.13844146  0.19129551    -0.12700
C2110       C  0.28634305  0.16056302  0.19233048     0.04600
C2111       C  0.32868971  0.10764749  0.18427527     0.27100
C2112       C  0.30551799  0.09507871  0.17814527    -0.13400
C2113       C  0.30719354  0.07252829  0.17864354     0.05100
C2114       C  0.33178858  0.06258489  0.18537731    -0.09400
C2115       C  0.35689450  0.07517634  0.19096941     0.06000
C2116       C  0.35530542  0.09768197  0.19043176    -0.13700
Br2117     Br  0.26290545  0.11815405  0.19865047    -0.05800
Br2118     Br  0.37249637  0.18834470  0.17507441    -0.00200
Br2119     Br  0.27362214  0.05545735  0.17065896     0.00300
Br2120     Br  0.38782457  0.11492254  0.19860095    -0.04100
Br2121     Br  0.24464047  0.17045486  0.20019457     0.00400
Br2122     Br  0.38520550  0.13561860  0.17182933    -0.03400
Br2123     Br  0.26969273  0.10888566  0.16957746    -0.04300
Br2124     Br  0.39319466  0.06150909  0.19946936    -0.00300
C2125       C  0.41101737  0.24267045  0.19094841     0.01100
C2126       C  0.43079774  0.25916461  0.18606502     0.03900
C2127       C  0.47075200  0.25902243  0.18584127    -0.12100
C2128       C  0.49107151  0.24276854  0.19072956     0.23200
C2129       C  0.47138259  0.22653059  0.19574473    -0.12700
C2130       C  0.43159861  0.22623043  0.19571756     0.04600
C2131       C  0.53311313  0.24202729  0.19024686     0.27100
C2132       C  0.55083665  0.22766613  0.18376991    -0.13400
C2133       C  0.59052335  0.22633905  0.18344125     0.05100
C2134       C  0.61297470  0.24052012  0.18904789    -0.09400
C2135       C  0.59518311  0.25460444  0.19572634     0.06000
C2136       C  0.55532897  0.25507950  0.19640913    -0.13700
Br2137     Br  0.49920209  0.20456132  0.20263695    -0.05800
Br2138     Br  0.40344399  0.28255272  0.18014737    -0.00200
Br2139     Br  0.61407004  0.20438882  0.17554252     0.00300
Br2140     Br  0.53087968  0.27405315  0.20557661    -0.04100
Br2141     Br  0.40569893  0.20245076  0.20186712     0.00400
Br2142     Br  0.49789195  0.28094004  0.17877408    -0.03400
Br2143     Br  0.52057353  0.21045278  0.17501227    -0.04300
Br2144     Br  0.62466144  0.27435044  0.20350204    -0.00300
C2145       C  0.91107840  0.23287148  0.18371861     0.01100
C2146       C  0.93299857  0.21524338  0.18698403     0.03900
C2147       C  0.97285456  0.21594495  0.18648019    -0.12100
C2148       C  0.99120039  0.23391810  0.18240075     0.23200
C2149       C  0.96929910  0.25078626  0.17847549    -0.12700
C2150       C  0.92945156  0.25051128  0.17931665     0.04600
C2151       C  0.03336540  0.23582501  0.18280723     0.27100
C2152       C  0.05047059  0.24886618  0.18999047    -0.13400
C2153       C  0.09005915  0.25199175  0.19005815     0.05100
C2154       C  0.11312929  0.24135487  0.18317656    -0.09400
C2155       C  0.09602472  0.22759413  0.17622337     0.06000
C2156       C  0.05633156  0.22504067  0.17598078    -0.13700
Br2157     Br  0.99425923  0.27457659  0.17216543    -0.05800
Br2158     Br  0.90851419  0.18989447  0.19213740    -0.00200
Br2159     Br  0.11212183  0.27215194  0.19912046     0.00300
Br2160     Br  0.03325597  0.20685920  0.16624427    -0.04100
Br2161     Br  0.90060471  0.27523316  0.17527534     0.00400
Br2162     Br  0.00249026  0.19262802  0.19173443    -0.03400
Br2163     Br  0.01934734  0.26241193  0.19978354    -0.04300
Br2164     Br  0.12694247  0.21163659  0.16713604    -0.00300
C2165       C  0.34420500  0.24967990  0.10012828     0.01100
C2166       C  0.34608871  0.22931596  0.10465641     0.03900
C2167       C  0.33949433  0.22736704  0.11474502    -0.12100
C2168       C  0.33178045  0.24575083  0.12037731     0.23200
C2169       C  0.33077944  0.26611259  0.11593377    -0.12700
C2170       C  0.33658980  0.26808723  0.10583061     0.04600
C2171       C  0.32239370  0.24372539  0.13087518     0.27100
C2172       C  0.28438288  0.24097591  0.13367813    -0.13400
C2173       C  0.27453863  0.24115536  0.14359699     0.05100
C2174       C  0.30258926  0.24457008  0.15077147    -0.09400
C2175       C  0.34100020  0.24596637  0.14799437     0.06000
C2176       C  0.35083982  0.24563163  0.13803577    -0.13700
Br2177     Br  0.32130376  0.29131067  0.12377160    -0.05800
Br2178     Br  0.36014581  0.20420002  0.09722769    -0.00200
Br2179     Br  0.22267706  0.23572656  0.14735554     0.00300
Br2180     Br  0.40304728  0.24847307  0.13412494    -0.04100
Br2181     Br  0.33253113  0.29602834  0.09982107     0.00400
Br2182     Br  0.34120572  0.19958176  0.12094079    -0.03400
Br2183     Br  0.24568568  0.23755602  0.12385135    -0.04300
Br2184     Br  0.38002142  0.24923296  0.15772207    -0.00300
C2185       C  0.57385962  0.68165648  0.06341731     0.01100
C2186       C  0.54989781  0.67429223  0.07099108     0.03900
C2187       C  0.54291182  0.65209232  0.07211314    -0.12100
C2188       C  0.55998731  0.63721491  0.06574184     0.23200
C2189       C  0.58570752  0.64446860  0.05862033    -0.12700
C2190       C  0.59286968  0.66654169  0.05751792     0.04600
C2191       C  0.55038811  0.61395154  0.06609386     0.27100
C2192       C  0.57226638  0.59978966  0.07177020    -0.13400
C2193       C  0.56923232  0.57742568  0.07035440     0.05100
C2194       C  0.54414965  0.56914114  0.06322760    -0.09400
C2195       C  0.52011927  0.58333202  0.05812274     0.06000
C2196       C  0.52314094  0.60565584  0.05959475    -0.13700
Br2197     Br  0.61060677  0.62397913  0.05020742    -0.05800
Br2198     Br  0.52515743  0.69445181  0.07958816    -0.00200
Br2199     Br  0.60204064  0.55846701  0.07761912     0.00300
Br2200     Br  0.49112899  0.62512667  0.05241053    -0.04100
Br2201     Br  0.63029720  0.67591027  0.04821090     0.00400
Br2202     Br  0.50919340  0.64198035  0.08216621    -0.03400
Br2203     Br  0.60784706  0.61124076  0.08109958    -0.04300
Br2204     Br  0.48294501  0.57224211  0.04910862    -0.00300
C2205       C  0.46790944  0.42764610  0.06269796     0.01100
C2206       C  0.47943408  0.41289042  0.06995348     0.03900
C2207       C  0.46720951  0.39140309  0.06958419    -0.12100
C2208       C  0.44411218  0.38433032  0.06185719     0.23200
C2209       C  0.43407328  0.39863020  0.05435824    -0.12700
C2210       C  0.44582894  0.42023745  0.05475174     0.04600
C2211       C  0.43226816  0.36148136  0.06138857     0.27100
C2212       C  0.45583346  0.34649984  0.05671014    -0.13400
C2213       C  0.44720222  0.32448452  0.05711944     0.05100
C2214       C  0.41466784  0.31728379  0.06213052    -0.09400
C2215       C  0.39027973  0.33242789  0.06650916     0.06000
C2216       C  0.39898632  0.35450875  0.06609901    -0.13700
Br2217     Br  0.40322543  0.38853552  0.04368371    -0.05800
Br2218     Br  0.51284108  0.42182271  0.08032607    -0.00200
Br2219     Br  0.48252191  0.30424260  0.05172593     0.00300
Br2220     Br  0.36622200  0.37522127  0.07226321    -0.04100
Br2221     Br  0.42893981  0.43969231  0.04468968     0.00400
Br2222     Br  0.48154142  0.37156593  0.07975654    -0.03400
Br2223     Br  0.50119602  0.35623567  0.05019479    -0.04300
Br2224     Br  0.34546397  0.32282220  0.07327384    -0.00300
C2225       C  0.05662512  0.56577183  0.06299851     0.01100
C2226       C  0.02782577  0.57972086  0.05977075     0.03900
C2227       C  0.03211417  0.60205348  0.06087163    -0.12100
C2228       C  0.06520452  0.61040238  0.06519040     0.23200
C2229       C  0.09257524  0.59642416  0.06907105    -0.12700
C2230       C  0.08846245  0.57413734  0.06789848     0.04600
C2231       C  0.07302686  0.63373884  0.06478863     0.27100
C2232       C  0.09378466  0.64208633  0.05689812    -0.13400
C2233       C  0.10071363  0.66424744  0.05626696     0.05100
C2234       C  0.08529078  0.67838681  0.06329362    -0.09400
C2235       C  0.06587416  0.66979562  0.07146215     0.06000
C2236       C  0.06007121  0.64746896  0.07220655    -0.13700
Br2237     Br  0.13627801  0.60801068  0.07569379    -0.05800
Br2238     Br  0.98266942  0.56816756  0.05381341    -0.00200
Br2239     Br  0.13272638  0.67494778  0.04591822     0.00300
Br2240     Br  0.03330631  0.63548894  0.08320318    -0.04100
Br2241     Br  0.12803571  0.55532696  0.07229289     0.00400
Br2242     Br  0.99327884  0.62132232  0.05628133    -0.03400
Br2243     Br  0.11168069  0.62307825  0.04676078    -0.04300
Br2244     Br  0.04492209  0.68823524  0.08141506    -0.00300
C2245       C  0.66005210  0.50635953  0.06180286     0.01100
C2246       C  0.68152001  0.52328855  0.05768978     0.03900
C2247       C  0.72123555  0.52238873  0.05771757    -0.12100
C2248       C  0.73998364  0.50557276  0.06255973     0.23200
C2249       C  0.71876251  0.48934896  0.06721969    -0.12700
C2250       C  0.67892942  0.48928947  0.06653539     0.04600
C2251       C  0.78203067  0.50495460  0.06260687     0.27100
C2252       C  0.80150395  0.49068983  0.05639421    -0.13400
C2253       C  0.84131319  0.48966626  0.05664680     0.05100
C2254       C  0.86193627  0.50405167  0.06256960    -0.09400
C2255       C  0.84240477  0.51909825  0.06839724     0.06000
C2256       C  0.80258396  0.51915861  0.06861553    -0.13700
Br2257     Br  0.74442998  0.46714214  0.07446950    -0.05800
Br2258     Br  0.65695705  0.54834893  0.05227474    -0.00200
Br2259     Br  0.86718834  0.46728546  0.04955048     0.00300
Br2260     Br  0.77605308  0.53850761  0.07724203    -0.04100
Br2261     Br  0.65098853  0.46485251  0.07132019     0.00400
Br2262     Br  0.75015187  0.54388818  0.05081530    -0.03400
Br2263     Br  0.77353482  0.47277627  0.04744085    -0.04300
Br2264     Br  0.87027114  0.53989283  0.07599222    -0.00300
C2265       C  0.16010712  0.49155816  0.06131232     0.01100
C2266       C  0.18011823  0.48242583  0.05338293     0.03900
C2267       C  0.21994382  0.48224524  0.05330520    -0.12100
C2268       C  0.24025621  0.49040011  0.06130801     0.23200
C2269       C  0.22052500  0.49739451  0.06966355    -0.12700
C2270       C  0.18053948  0.49756718  0.06977120     0.04600
C2271       C  0.28240599  0.49043989  0.06115682     0.27100
C2272       C  0.30237187  0.47200152  0.06410952    -0.13400
C2273       C  0.34217964  0.47225774  0.06444308     0.05100
C2274       C  0.36239144  0.49090895  0.06172347    -0.09400
C2275       C  0.34246904  0.50916908  0.05850355     0.06000
C2276       C  0.30252343  0.50890772  0.05819006    -0.13700
Br2277     Br  0.24863220  0.50695184  0.08092609    -0.05800
Br2278     Br  0.15318485  0.46804096  0.04302552    -0.00200
Br2279     Br  0.36893376  0.44699050  0.06877800     0.00300
Br2280     Br  0.27513586  0.53392678  0.05388165    -0.04100
Br2281     Br  0.15468265  0.50527022  0.08166258     0.00400
Br2282     Br  0.24692240  0.47087174  0.04220554    -0.03400
Br2283     Br  0.27492483  0.44647414  0.06784605    -0.04300
Br2284     Br  0.36984847  0.53494527  0.05517994    -0.00300
C2285       C  0.91845156  0.32019645  0.06278583     0.01100
C2286       C  0.95146050  0.32995661  0.06660291     0.03900
C2287       C  0.95773899  0.35204945  0.06532613    -0.12100
C2288       C  0.93133141  0.36456600  0.06015787     0.23200
C2289       C  0.89910025  0.35476517  0.05600978    -0.12700
C2290       C  0.89247835  0.33263614  0.05738770     0.04600
C2291       C  0.93592127  0.38826972  0.06000962     0.27100
C2292       C  0.91553395  0.40081778  0.06672058    -0.13400
C2293       C  0.92220617  0.42298294  0.06736444     0.05100
C2294       C  0.95210820  0.43252087  0.06199012    -0.09400
C2295       C  0.97180831  0.41999421  0.05501609     0.06000
C2296       C  0.96283769  0.39804803  0.05385918    -0.13700
Br2297     Br  0.86364336  0.37190389  0.04867933    -0.05800
Br2298     Br  0.98875905  0.31312607  0.07352782    -0.00200
Br2299     Br  0.88829324  0.44015650  0.07525751     0.00300
Br2300     Br  0.98815689  0.38098290  0.04409243    -0.04100
Br2301     Br  0.84645921  0.31984912  0.05253692     0.00400
Br2302     Br  0.00209328  0.36540240  0.07095381    -0.03400
Br2303     Br  0.87977209  0.38738699  0.07547238    -0.04300
Br2304     Br  0.01261777  0.43208126  0.04742539    -0.00300
C2305       C  0.56273640  0.67560564  0.18396951     0.01100
C2306       C  0.58729415  0.66886539  0.17642362     0.03900
C2307       C  0.59292862  0.64675617  0.17467394    -0.12100
C2308       C  0.57422579  0.63138036  0.18047357     0.23200
C2309       C  0.54842912  0.63814967  0.18769187    -0.12700
C2310       C  0.54268791  0.66015057  0.18942647     0.04600
C2311       C  0.58283625  0.60809181  0.17953508     0.27100
C2312       C  0.55765448  0.59434457  0.17456623    -0.13400
C2313       C  0.56078544  0.57190799  0.17565586     0.05100
C2314       C  0.58859732  0.56326085  0.18193077    -0.09400
C2315       C  0.61604317  0.57694979  0.18608167     0.06000
C2316       C  0.61348612  0.59930686  0.18476185    -0.13700
Br2317     Br  0.52146744  0.61716680  0.19539679    -0.05800
Br2318     Br  0.61506310  0.68975564  0.16887824    -0.00200
Br2319     Br  0.52536686  0.55327910  0.16905604     0.00300
Br2320     Br  0.65115803  0.61801459  0.19040423    -0.04100
Br2321     Br  0.50666287  0.66911335  0.19921070     0.00400
Br2322     Br  0.62684043  0.63735939  0.16451652    -0.03400
Br2323     Br  0.51777656  0.60646681  0.16670248    -0.04300
Br2324     Br  0.65703597  0.56500854  0.19363900    -0.00300
C2325       C  0.65729117  0.42091479  0.18527580     0.01100
C2326       C  0.66674373  0.41183983  0.19445535     0.03900
C2327       C  0.67577214  0.38975257  0.19518899    -0.12100
C2328       C  0.67606485  0.37659932  0.18681221     0.23200
C2329       C  0.66446896  0.38527259  0.17780815    -0.12700
C2330       C  0.65359825  0.40694547  0.17712497     0.04600
C2331       C  0.68649972  0.35335110  0.18739228     0.27100
C2332       C  0.72472883  0.34683244  0.18816807    -0.13400
C2333       C  0.73433224  0.32478823  0.18772280     0.05100
C2334       C  0.70633747  0.30937493  0.18549775    -0.09400
C2335       C  0.66827995  0.31616244  0.18437029     0.06000
C2336       C  0.65820613  0.33767926  0.18608555    -0.13700
Br2337     Br  0.66445857  0.36749410  0.16622426    -0.05800
Br2338     Br  0.66777898  0.42908954  0.20615310    -0.00200
Br2339     Br  0.78616770  0.31588802  0.18938832     0.00300
Br2340     Br  0.60544551  0.34590802  0.18645182    -0.04100
Br2341     Br  0.63114335  0.41668399  0.16501973     0.00400
Br2342     Br  0.68797328  0.37735235  0.20768786    -0.03400
Br2343     Br  0.76409211  0.36817776  0.18922094    -0.04300
Br2344     Br  0.62966220  0.29669111  0.17975066    -0.00300
C2345       C  0.59054365  0.48554162  0.14862970     0.01100
C2346       C  0.56122054  0.47338462  0.14442786     0.03900
C2347       C  0.55483166  0.47446950  0.13432008    -0.12100
C2348       C  0.57850077  0.48725690  0.12840744     0.23200
C2349       C  0.60873416  0.49876995  0.13259704    -0.12700
C2350       C  0.61423200  0.49827545  0.14273469     0.04600
C2351       C  0.57009482  0.48960335  0.11789183     0.27100
C2352       C  0.58235214  0.47394528  0.11119258    -0.13400
C2353       C  0.57131537  0.47533612  0.10136147     0.05100
C2354       C  0.54858036  0.49255968  0.09820048    -0.09400
C2355       C  0.53831120  0.50889931  0.10478812     0.06000
C2356       C  0.54870983  0.50730481  0.11465148    -0.13700
Br2357     Br  0.64261617  0.51505105  0.12440943    -0.05800
Br2358     Br  0.52991594  0.45541837  0.15255845    -0.00200
Br2359     Br  0.58779202  0.45386928  0.09219980     0.00300
Br2360     Br  0.53270080  0.52898142  0.12383022    -0.04100
Br2361     Br  0.65379776  0.51532474  0.14862329     0.00400
Br2362     Br  0.51341101  0.45872518  0.12856217    -0.03400
Br2363     Br  0.61395853  0.45059124  0.11554808    -0.04300
Br2364     Br  0.50877403  0.53305195  0.10036384    -0.00300
C2365       C  0.04822824  0.67447473  0.18448889     0.01100
C2366       C  0.07338040  0.66651181  0.17734848     0.03900
C2367       C  0.07642225  0.64419667  0.17580534    -0.12100
C2368       C  0.05527446  0.62987047  0.18160357     0.23200
C2369       C  0.02868037  0.63789755  0.18832416    -0.12700
C2370       C  0.02460747  0.66014317  0.18959298     0.04600
C2371       C  0.06387836  0.60656451  0.18161955     0.27100
C2372       C  0.04065603  0.59195185  0.17653058    -0.13400
C2373       C  0.04498922  0.56968484  0.17802914     0.05100
C2374       C  0.07267240  0.56208374  0.18462121    -0.09400
C2375       C  0.09753166  0.57671666  0.18914417     0.06000
C2376       C  0.09297011  0.59888951  0.18771468    -0.13700
Br2377     Br  0.99952852  0.61831753  0.19625514    -0.05800
Br2378     Br  0.10588953  0.68592868  0.17025602    -0.00200
Br2379     Br  0.01152354  0.54980824  0.17150374     0.00300
Br2380     Br  0.12538747  0.61889634  0.19451770    -0.04100
Br2381     Br  0.98611516  0.67102746  0.19819817     0.00400
Br2382     Br  0.11076904  0.63307326  0.16612344    -0.03400
Br2383     Br  0.00195869  0.60265680  0.16788290    -0.04300
Br2384     Br  0.13842426  0.56632630  0.19717228    -0.00300
C2385       C  0.96912983  0.49283118  0.18756024     0.01100
C2386       C  0.94573708  0.50924841  0.19138819     0.03900
C2387       C  0.90618832  0.50723207  0.19099464    -0.12100
C2388       C  0.88962249  0.48923453  0.18647953     0.23200
C2389       C  0.91276350  0.47301313  0.18249226    -0.12700
C2390       C  0.95247998  0.47461168  0.18317944     0.04600
C2391       C  0.84780790  0.48805534  0.18563553     0.27100
C2392       C  0.82655491  0.47539817  0.19215413    -0.13400
C2393       C  0.78671723  0.47521331  0.19159123     0.05100
C2394       C  0.76787688  0.48841003  0.18475211    -0.09400
C2395       C  0.78949105  0.50141540  0.17835714     0.06000
C2396       C  0.82923604  0.50075090  0.17863804    -0.13700
Br2397     Br  0.88989839  0.44869820  0.17605535    -0.05800
Br2398     Br  0.96739340  0.53513079  0.19687591    -0.00200
Br2399     Br  0.75864201  0.45563479  0.19973120     0.00300
Br2400     Br  0.85863740  0.51711129  0.16935630    -0.04100
Br2401     Br  0.98372308  0.45119433  0.17870334     0.00400
Br2402     Br  0.87439028  0.52923090  0.19663607    -0.03400
Br2403     Br  0.85225194  0.45819228  0.20180280    -0.04300
Br2404     Br  0.76511778  0.52095362  0.16938133    -0.00300
C2405       C  0.47000268  0.50179025  0.18585648     0.01100
C2406       C  0.44947869  0.52034836  0.18862136     0.03900
C2407       C  0.40961809  0.52032167  0.18838187    -0.12100
C2408       C  0.38982607  0.50180047  0.18537814     0.23200
C2409       C  0.41020430  0.48349418  0.18234634    -0.12700
C2410       C  0.45012298  0.48337420  0.18268688     0.04600
C2411       C  0.34760596  0.50146994  0.18544864     0.27100
C2412       C  0.32788422  0.49027854  0.19281799    -0.13400
C2413       C  0.28807067  0.48856725  0.19247130     0.05100
C2414       C  0.26753516  0.49891020  0.18497457    -0.09400
C2415       C  0.28733145  0.51117381  0.17793842     0.06000
C2416       C  0.32717395  0.51187509  0.17800735    -0.13700
Br2417     Br  0.38314056  0.45852585  0.17772962    -0.05800
Br2418     Br  0.47570500  0.54613383  0.19268583    -0.00200
Br2419     Br  0.26239645  0.47053180  0.20183121     0.00300
Br2420     Br  0.35397521  0.52627573  0.16762280    -0.04100
Br2421     Br  0.47713413  0.45736500  0.17952528     0.00400
Br2422     Br  0.38202082  0.54570669  0.19223703    -0.03400
Br2423     Br  0.35571313  0.47671485  0.20324454    -0.04300
Br2424     Br  0.26003860  0.52764651  0.16829067    -0.00300
C2425       C  0.17565870  0.42652438  0.18626756     0.01100
C2426       C  0.20984983  0.41829322  0.18236744     0.03900
C2427       C  0.21811343  0.39620993  0.18295855    -0.12100
C2428       C  0.19326381  0.38217425  0.18784957     0.23200
C2429       C  0.16061656  0.39058962  0.19241037    -0.12700
C2430       C  0.15139903  0.41259826  0.19146654     0.04600
C2431       C  0.19948554  0.35842433  0.18733157     0.27100
C2432       C  0.17882973  0.34617746  0.18053028    -0.13400
C2433       C  0.18406466  0.32379160  0.17991965     0.05100
C2434       C  0.21229672  0.31343871  0.18559505    -0.09400
C2435       C  0.23370849  0.32590155  0.19223863     0.06000
C2436       C  0.22653745  0.34815533  0.19329471    -0.13700
Br2437     Br  0.12810559  0.37163823  0.19972774    -0.05800
Br2438     Br  0.24625792  0.43730188  0.17631802    -0.00200
Br2439     Br  0.15066767  0.30744596  0.17154076     0.00300
Br2440     Br  0.25409973  0.36480536  0.20280354    -0.04100
Br2441     Br  0.10414452  0.42311423  0.19660379     0.00400
Br2442     Br  0.26281173  0.38499886  0.17665853    -0.03400
Br2443     Br  0.14407670  0.36035188  0.17175301    -0.04300
Br2444     Br  0.27499932  0.31312755  0.19930273    -0.00300
C2445       C  0.08624908  0.49012126  0.14940202     0.01100
C2446       C  0.11490549  0.49500379  0.14256522     0.03900
C2447       C  0.10600194  0.49679529  0.13260919    -0.12100
C2448       C  0.06846082  0.49382567  0.12943571     0.23200
C2449       C  0.03956445  0.48976049  0.13627650    -0.12700
C2450       C  0.04843555  0.48780043  0.14624477     0.04600
C2451       C  0.05991081  0.49367489  0.11884876     0.27100
C2452       C  0.05366536  0.51304926  0.11380606    -0.13400
C2453       C  0.04596071  0.51271999  0.10373291     0.05100
C2454       C  0.04463608  0.49296619  0.09867393    -0.09400
C2455       C  0.05169909  0.47363735  0.10371398     0.06000
C2456       C  0.05897185  0.47399309  0.11378911    -0.13700
Br2457     Br  0.98790681  0.48668444  0.13191506    -0.05800
Br2458     Br  0.16628578  0.50011907  0.14683161    -0.00200
Br2459     Br  0.03504240  0.53927373  0.09703067     0.00300
Br2460     Br  0.06729077  0.44746927  0.12074346    -0.04100
Br2461     Br  0.00903962  0.48077660  0.15544561     0.00400
Br2462     Br  0.14521609  0.50323114  0.12324806    -0.03400
Br2463     Br  0.05482748  0.53993544  0.12079734    -0.04300
Br2464     Br  0.05291407  0.44667255  0.09676454    -0.00300
C2465       C  0.78934919  0.99950376  0.80932620     0.01100
C2466       C  0.81068184  0.98428506  0.80391315     0.03900
C2467       C  0.85042185  0.98411624  0.80450158    -0.12100
C2468       C  0.86928601  0.99862679  0.81066764     0.23200
C2469       C  0.84830649  0.01328949  0.81632845    -0.12700
C2470       C  0.80847211  0.01392421  0.81560234     0.04600
C2471       C  0.91131683  0.99844693  0.81113912     0.27100
C2472       C  0.93000135  0.98465906  0.81767911    -0.13400
C2473       C  0.96982278  0.98448277  0.81812720     0.05100
C2474       C  0.99127996  0.99875927  0.81229290    -0.09400
C2475       C  0.97236325  0.01208474  0.80550856     0.06000
C2476       C  0.93254229  0.01171978  0.80488060    -0.13700
Br2477     Br  0.87451769  0.03249237  0.82507531    -0.05800
Br2478     Br  0.78611449  0.96256879  0.79602254    -0.00200
Br2479     Br  0.99479744  0.96396080  0.82650013     0.00300
Br2480     Br  0.90664376  0.02975849  0.79558499    -0.04100
Br2481     Br  0.78077230  0.03533122  0.82286598     0.00400
Br2482     Br  0.87944601  0.96390067  0.79686510    -0.03400
Br2483     Br  0.90070875  0.96631872  0.82615436    -0.04300
Br2484     Br  0.00016050  0.03199500  0.79747491    -0.00300
C2485       C  0.28953395  0.00152388  0.81288067     0.01100
C2486       C  0.30946814  0.01325421  0.80570221     0.03900
C2487       C  0.34921122  0.01376399  0.80577760    -0.12100
C2488       C  0.36929280  0.00338709  0.81327342     0.23200
C2489       C  0.34949681  0.99270562  0.82076514    -0.12700
C2490       C  0.30967128  0.99148590  0.82050900     0.04600
C2491       C  0.41121314  0.00457080  0.81349780     0.27100
C2492       C  0.43324401  0.98727555  0.81007410    -0.13400
C2493       C  0.47306068  0.98844695  0.81040653     0.05100
C2494       C  0.49094725  0.00704999  0.81408786    -0.09400
C2495       C  0.46863979  0.02437110  0.81751633     0.06000
C2496       C  0.42894767  0.02308683  0.81720273    -0.13700
Br2497     Br  0.37723102  0.97980376  0.83136821    -0.05800
Br2498     Br  0.28240404  0.02965662  0.79599555    -0.00200
Br2499     Br  0.50280880  0.96390881  0.80649904     0.00300
Br2500     Br  0.39851291  0.04664163  0.82196089    -0.04100
Br2501     Br  0.28319600  0.97521538  0.83035223     0.00400
Br2502     Br  0.37632774  0.02864348  0.79558331    -0.03400
Br2503     Br  0.40864560  0.96187497  0.80507082    -0.04300
Br2504     Br  0.49191275  0.05021008  0.82257512    -0.00300
C2505       C  0.73685368  0.00281764  0.02453782     0.01100
C2506       C  0.74959597  0.98397045  0.01985225     0.03900
C2507       C  0.75158422  0.98311220  0.00961117    -0.12100
C2508       C  0.74177958  0.00122392  0.00401080     0.23200
C2509       C  0.72868897  0.01998001  0.00865604    -0.12700
C2510       C  0.72570850  0.02066574  0.01888411     0.04600
C2511       C  0.74284894  0.99995062  0.99320807     0.27100
C2512       C  0.77710280  0.00279657  0.98808589    -0.13400
C2513       C  0.77816060  0.00014295  0.97787271     0.05100
C2514       C  0.74462602  0.99531944  0.97270788    -0.09400
C2515       C  0.71017302  0.99278614  0.97792084     0.06000
C2516       C  0.70952077  0.99487010  0.98811623    -0.13700
Br2517     Br  0.71535999  0.04479053  0.00096499    -0.05800
Br2518     Br  0.76706633  0.95980712  0.02740998    -0.00200
Br2519     Br  0.82607228  0.00129272  0.97113214     0.00300
Br2520     Br  0.66291170  0.99037277  0.99524207    -0.04100
Br2521     Br  0.70526422  0.04586902  0.02513305     0.00400
Br2522     Br  0.76818477  0.95719497  0.00318006    -0.03400
Br2523     Br  0.82259160  0.00999786  0.99514764    -0.04300
Br2524     Br  0.66290070  0.98702266  0.97131793    -0.00300
C2525       C  0.67048004  0.00882528  0.84788403     0.01100
C2526       C  0.65726775  0.99035168  0.85278456     0.03900
C2527       C  0.65878546  0.98933057  0.86303179    -0.12100
C2528       C  0.67310408  0.00683625  0.86840107     0.23200
C2529       C  0.68549973  0.02545232  0.86351351    -0.12700
C2530       C  0.68476651  0.02631482  0.85327250     0.04600
C2531       C  0.67884702  0.00498215  0.87908203     0.27100
C2532       C  0.65028190  0.01119229  0.88569094    -0.13400
C2533       C  0.65747146  0.01087962  0.89580724     0.05100
C2534       C  0.69315688  0.00427238  0.89929118    -0.09400
C2535       C  0.72115000  0.99735034  0.89267331     0.06000
C2536       C  0.71408344  0.99781891  0.88259986    -0.13700
Br2537     Br  0.70328430  0.04980817  0.87091518    -0.05800
Br2538     Br  0.63542251  0.96683489  0.84551142    -0.00200
Br2539     Br  0.61931613  0.02049554  0.90486330     0.00300
Br2540     Br  0.75300413  0.98912481  0.87353239    -0.04100
Br2541     Br  0.70501527  0.05104886  0.84658809     0.00400
Br2542     Br  0.64094957  0.96410564  0.86977437    -0.03400
Br2543     Br  0.60186179  0.02062342  0.88083000    -0.04300
Br2544     Br  0.76910661  0.98679791  0.89742912    -0.00300
C2545       C  0.22277547  0.00468986  0.02624462     0.01100
C2546       C  0.22812569  0.02339175  0.02048960     0.03900
C2547       C  0.23182809  0.02183554  0.01033726    -0.12100
C2548       C  0.22754926  0.00189881  0.00569206     0.23200
C2549       C  0.21892352  0.98346715  0.01122477    -0.12700
C2550       C  0.21686618  0.98473471  0.02149312     0.04600
C2551       C  0.23229851  0.00063473  0.99496237     0.27100
C2552       C  0.20333552  0.00821614  0.98880235    -0.13400
C2553       C  0.20879683  0.00848396  0.97866501     0.05100
C2554       C  0.24267186  0.00054878  0.97460689    -0.09400
C2555       C  0.27177773  0.99316137  0.98073976     0.06000
C2556       C  0.26676714  0.99339393  0.99092711    -0.13700
Br2557     Br  0.21167618  0.95632900  0.00467621    -0.05800
Br2558     Br  0.22963471  0.05165920  0.02625357    -0.00200
Br2559     Br  0.16975518  0.01972920  0.97026404     0.00300
Br2560     Br  0.30687036  0.98362333  0.99937283    -0.04100
Br2561     Br  0.20831483  0.95871926  0.02883514     0.00400
Br2562     Br  0.24491148  0.04697552  0.00275795    -0.03400
Br2563     Br  0.15589766  0.01785141  0.99426706    -0.04300
Br2564     Br  0.31783215  0.98214892  0.97514157    -0.00300
C2565       C  0.87408074  0.00120575  0.93540481     0.01100
C2566       C  0.89180129  0.98343319  0.93984957     0.03900
C2567       C  0.93159380  0.98275497  0.94065465    -0.12100
C2568       C  0.95381314  0.99960994  0.93685614     0.23200
C2569       C  0.93611473  0.01756522  0.93261097    -0.12700
C2570       C  0.89640399  0.01846160  0.93195617     0.04600
C2571       C  0.99580430  0.99877414  0.93751255     0.27100
C2572       C  0.01445957  0.00923523  0.94523663    -0.13400
C2573       C  0.05424959  0.00914762  0.94573097     0.05100
C2574       C  0.07572617  0.99799106  0.93864735    -0.09400
C2575       C  0.05687927  0.98703965  0.93104401     0.06000
C2576       C  0.01705262  0.98774815  0.93039370    -0.13700
Br2577     Br  0.96650196  0.04100688  0.92773564    -0.05800
Br2578     Br  0.86184657  0.95954677  0.94438852    -0.00200
Br2579     Br  0.07904861  0.02482094  0.95606171     0.00300
Br2580     Br  0.99132543  0.97325818  0.91986893    -0.04100
Br2581     Br  0.87266785  0.04384879  0.92665043     0.00400
Br2582     Br  0.95594841  0.95885547  0.94701508    -0.03400
Br2583     Br  0.98512515  0.02327995  0.95526421    -0.04300
Br2584     Br  0.08520001  0.96953628  0.92200483    -0.00300
C2585       C  0.37448863  0.99797461  0.93757484     0.01100
C2586       C  0.39121779  0.98260932  0.94379363     0.03900
C2587       C  0.43104174  0.98128654  0.94449651    -0.12100
C2588       C  0.45406464  0.99512936  0.93890716     0.23200
C2589       C  0.43733649  0.01066028  0.93285764    -0.12700
C2590       C  0.39781788  0.01234088  0.93230425     0.04600
C2591       C  0.49598440  0.99354348  0.93914884     0.27100
C2592       C  0.51703021  0.00794917  0.94492830    -0.13400
C2593       C  0.55675133  0.00836814  0.94424631     0.05100
C2594       C  0.57572963  0.99421920  0.93786308    -0.09400
C2595       C  0.55467063  0.97977657  0.93208632     0.06000
C2596       C  0.51483279  0.97951292  0.93270314    -0.13700
Br2597     Br  0.46892839  0.02941878  0.92511739    -0.05800
Br2598     Br  0.35990784  0.96262276  0.95089568    -0.00200
Br2599     Br  0.58530654  0.02879676  0.95188649     0.00300
Br2600     Br  0.48575938  0.96014940  0.92465722    -0.04100
Br2601     Br  0.37609452  0.03509753  0.92451993     0.00400
Br2602     Br  0.45423097  0.96029672  0.95291575    -0.03400
Br2603     Br  0.49118298  0.02733385  0.95366325    -0.04300
Br2604     Br  0.58040332  0.95984817  0.92361183    -0.00300
C2605       C  0.16973512  0.00677109  0.84987366     0.01100
C2606       C  0.16451988  0.98776797  0.85530415     0.03900
C2607       C  0.17096586  0.98778638  0.86541744    -0.12100
C2608       C  0.18236917  0.00680163  0.87013818     0.23200
C2609       C  0.18889301  0.02559231  0.86468005    -0.12700
C2610       C  0.18273471  0.02554988  0.85454697     0.04600
C2611       C  0.18811903  0.00681179  0.88083363     0.27100
C2612       C  0.15752757  0.01107390  0.88714741    -0.13400
C2613       C  0.16286439  0.01048856  0.89732010     0.05100
C2614       C  0.19882681  0.00558350  0.90116939    -0.09400
C2615       C  0.22921907  0.00094073  0.89481692     0.06000
C2616       C  0.22394803  0.00179250  0.88467635    -0.13700
Br2617     Br  0.20642713  0.05128918  0.87112166    -0.05800
Br2618     Br  0.14683089  0.96191623  0.84900524    -0.00200
Br2619     Br  0.12140848  0.01726738  0.90593689     0.00300
Br2620     Br  0.26576396  0.99613891  0.87598289    -0.04100
Br2621     Br  0.19383728  0.05088536  0.84700566     0.00400
Br2622     Br  0.16401598  0.96182327  0.87288682    -0.03400
Br2623     Br  0.10851637  0.01795938  0.88179561    -0.04300
Br2624     Br  0.27779494  0.99233528  0.89997946    -0.00300
C2625       C  0.09385981  0.07040163  0.81395692     0.01100
C2626       C  0.09516492  0.08434137  0.82219221     0.03900
C2627       C  0.08570795  0.10622954  0.82128126    -0.12100
C2628       C  0.07636013  0.11488295  0.81213210     0.23200
C2629       C  0.07785022  0.10172272  0.80380441    -0.12700
C2630       C  0.08649275  0.07962381  0.80464764     0.04600
C2631       C  0.06665047  0.13813216  0.81129687     0.27100
C2632       C  0.02857157  0.14498130  0.81170583    -0.13400
C2633       C  0.01986067  0.16711488  0.81190280     0.05100
C2634       C  0.04916033  0.18247181  0.81173747    -0.09400
C2635       C  0.08714195  0.17556548  0.81108680     0.06000
C2636       C  0.09581836  0.15351628  0.81075030    -0.13700
Br2637     Br  0.06785007  0.11432224  0.79120775    -0.05800
Br2638     Br  0.11229313  0.07444664  0.83479831    -0.00200
Br2639     Br  0.96804008  0.17652446  0.81296888     0.00300
Br2640     Br  0.14786663  0.14422917  0.80993281    -0.04100
Br2641     Br  0.08750935  0.06270699  0.79284773     0.00400
Br2642     Br  0.08542401  0.12465854  0.83263908    -0.03400
Br2643     Br  0.98857699  0.12396612  0.81241516    -0.04300
Br2644     Br  0.12766771  0.19626508  0.81121888    -0.00300
C2645       C  0.64208824  0.24512222  0.80975249     0.01100
C2646       C  0.66047444  0.26209441  0.80485899     0.03900
C2647       C  0.70031129  0.26221389  0.80407836    -0.12100
C2648       C  0.72185993  0.24557605  0.80831794     0.23200
C2649       C  0.70329957  0.22796283  0.81264326    -0.12700
C2650       C  0.66356122  0.22756401  0.81321075     0.04600
C2651       C  0.76398583  0.24661512  0.80838618     0.27100
C2652       C  0.78509626  0.23426407  0.80172262    -0.13400
C2653       C  0.82493355  0.23426693  0.80216290     0.05100
C2654       C  0.84404430  0.24723591  0.80905641    -0.09400
C2655       C  0.82287349  0.26017399  0.81550138     0.06000
C2656       C  0.78297209  0.25954241  0.81529163    -0.13700
Br2657     Br  0.73243767  0.20452731  0.81798939    -0.05800
Br2658     Br  0.63143351  0.28565071  0.79963892    -0.00200
Br2659     Br  0.85330575  0.21632591  0.79330835     0.00300
Br2660     Br  0.75417101  0.27674832  0.82433775    -0.04100
Br2661     Br  0.63853109  0.20245688  0.81842021     0.00400
Br2662     Br  0.72559848  0.28522836  0.79729301    -0.03400
Br2663     Br  0.75920671  0.21789040  0.79178852    -0.04300
Br2664     Br  0.84839792  0.28020802  0.82401090    -0.00300
C2665       C  0.34448964  0.26013888  0.81279376     0.01100
C2666       C  0.32530489  0.24126475  0.81559528     0.03900
C2667       C  0.28539841  0.24083393  0.81570210    -0.12100
C2668       C  0.26463333  0.25890693  0.81258100     0.23200
C2669       C  0.28377580  0.27773507  0.80977197    -0.12700
C2670       C  0.32351740  0.27850892  0.81006227     0.04600
C2671       C  0.22259083  0.25845162  0.81258157     0.27100
C2672       C  0.20254132  0.25038495  0.80449391    -0.13400
C2673       C  0.16259400  0.24964868  0.80461898     0.05100
C2674       C  0.14248750  0.25642974  0.81305332    -0.09400
C2675       C  0.16300594  0.26585159  0.82087013     0.06000
C2676       C  0.20277674  0.26667093  0.82063246    -0.13700
Br2677     Br  0.25534510  0.30237668  0.80539077    -0.05800
Br2678     Br  0.35344932  0.21551169  0.81847555    -0.00200
Br2679     Br  0.13664274  0.23884832  0.79319832     0.00300
Br2680     Br  0.23063529  0.27891057  0.83142137    -0.04100
Br2681     Br  0.34921098  0.30495887  0.80676468     0.00400
Br2682     Br  0.25893632  0.21548072  0.82003889    -0.03400
Br2683     Br  0.23028067  0.23995874  0.79332040    -0.04300
Br2684     Br  0.13723451  0.27891973  0.83181108    -0.00300
C2685       C  0.53682554  0.18232097  0.81040965     0.01100
C2686       C  0.52288221  0.16661154  0.81690336     0.03900
C2687       C  0.53375403  0.14500996  0.81584452    -0.12100
C2688       C  0.55901072  0.13899573  0.80837792     0.23200
C2689       C  0.57165317  0.15440044  0.80161864    -0.12700
C2690       C  0.56029545  0.17599075  0.80254531     0.04600
C2691       C  0.57303780  0.11654961  0.80791095     0.27100
C2692       C  0.60688618  0.11089492  0.81271736    -0.13400
C2693       C  0.61723849  0.08915837  0.81356108     0.05100
C2694       C  0.59387592  0.07304967  0.80957045    -0.09400
C2695       C  0.56187240  0.07888053  0.80398225     0.06000
C2696       C  0.55129029  0.10060581  0.80324949    -0.13700
Br2697     Br  0.60607348  0.14593153  0.79139037    -0.05800
Br2698     Br  0.48883755  0.17465530  0.82729865    -0.00200
Br2699     Br  0.66357852  0.08131255  0.82010210     0.00300
Br2700     Br  0.50590975  0.10858682  0.79630796    -0.04100
Br2701     Br  0.57960649  0.19691646  0.79341795     0.00400
Br2702     Br  0.51510177  0.12363331  0.82483564    -0.03400
Br2703     Br  0.63818365  0.13291614  0.81847473    -0.04300
Br2704     Br  0.53101012  0.05717114  0.79780576    -0.00300
C2705       C  0.87890838  0.24711753  0.97340591     0.01100
C2706       C  0.91380873  0.25155789  0.97821724     0.03900
C2707       C  0.91601052  0.25185119  0.98845290    -0.12100
C2708       C  0.88423998  0.24655437  0.99410420     0.23200
C2709       C  0.84992951  0.24106121  0.98943136    -0.12700
C2710       C  0.84703685  0.24165656  0.97913119     0.04600
C2711       C  0.88753657  0.24681596  0.00496128     0.27100
C2712       C  0.90439328  0.22938580  0.00987250    -0.13400
C2713       C  0.90916262  0.23000810  0.02007204     0.05100
C2714       C  0.89690577  0.24796934  0.02549156    -0.09400
C2715       C  0.88084290  0.26563764  0.02054471     0.06000
C2716       C  0.87625405  0.26507082  0.01031622    -0.13700
Br2717     Br  0.80681281  0.23305814  0.99723410    -0.05800
Br2718     Br  0.96022156  0.25623307  0.97109821    -0.00200
Br2719     Br  0.93248069  0.20613058  0.02668921     0.00300
Br2720     Br  0.85348816  0.28902463  0.00360486    -0.04100
Br2721     Br  0.79881384  0.23628769  0.97300543     0.00400
Br2722     Br  0.96272772  0.26000391  0.99485889    -0.03400
Br2723     Br  0.92001415  0.20437378  0.00260991    -0.04300
Br2724     Br  0.86265073  0.29001221  0.02783432    -0.00300
C2725       C  0.77339960  0.06789589  0.93629279     0.01100
C2726       C  0.79759476  0.07444101  0.94399239     0.03900
C2727       C  0.80964704  0.09604169  0.94469408    -0.12100
C2728       C  0.79812890  0.11122198  0.93767681     0.23200
C2729       C  0.77227939  0.10504685  0.93036107    -0.12700
C2730       C  0.75990976  0.08355047  0.92967705     0.04600
C2731       C  0.81492803  0.13328336  0.93758027     0.27100
C2732       C  0.80023615  0.14961804  0.94359865    -0.13400
C2733       C  0.81522242  0.17063217  0.94315200     0.05100
C2734       C  0.84430943  0.17569460  0.93641570    -0.09400
C2735       C  0.85956197  0.15913195  0.93057481     0.06000
C2736       C  0.84513253  0.13803805  0.93120467    -0.13700
Br2737     Br  0.75473553  0.12609224  0.92108001    -0.05800
Br2738     Br  0.81745229  0.05368902  0.95310397    -0.00200
Br2739     Br  0.79349229  0.19268044  0.95131694     0.00300
Br2740     Br  0.86582193  0.11563670  0.92306343    -0.04100
Br2741     Br  0.72434024  0.07562168  0.91959943     0.00400
Br2742     Br  0.84342842  0.10480845  0.95502344    -0.03400
Br2743     Br  0.75784889  0.14339891  0.95201073    -0.04300
Br2744     Br  0.90058278  0.16526084  0.92173384    -0.00300
C2745       C  0.93125225  0.24161315  0.89970691     0.01100
C2746       C  0.93403231  0.22316210  0.89370541     0.03900
C2747       C  0.93969024  0.22529015  0.88358981    -0.12100
C2748       C  0.94336314  0.24577042  0.87935393     0.23200
C2749       C  0.94211988  0.26418551  0.88530315    -0.12700
C2750       C  0.93612209  0.26219428  0.89543232     0.04600
C2751       C  0.94959875  0.24762584  0.86865308     0.27100
C2752       C  0.98658064  0.25010169  0.86498957    -0.13400
C2753       C  0.99308382  0.24957224  0.85487155     0.05100
C2754       C  0.96285446  0.24551067  0.84835037    -0.09400
C2755       C  0.92572093  0.24340233  0.85202093     0.06000
C2756       C  0.91902685  0.24510501  0.86212650    -0.13700
Br2757     Br  0.94788744  0.29220839  0.87946569    -0.05800
Br2758     Br  0.93238634  0.19470202  0.89925217    -0.00200
Br2759     Br  0.04350797  0.25508557  0.84999582     0.00300
Br2760     Br  0.86804135  0.24364611  0.86711420    -0.04100
Br2761     Br  0.93287877  0.28806754  0.90317537     0.00400
Br2762     Br  0.94256657  0.20003507  0.87542680    -0.03400
Br2763     Br  0.02852658  0.25356554  0.87389128    -0.04300
Br2764     Br  0.88449690  0.23626635  0.84337019    -0.00300
C2765       C  0.38992622  0.24476892  0.02549989     0.01100
C2766       C  0.39531913  0.22623218  0.01971224     0.03900
C2767       C  0.39144671  0.22732470  0.00950911    -0.12100
C2768       C  0.38283314  0.24700827  0.00498505     0.23200
C2769       C  0.37923956  0.26574041  0.01067969    -0.12700
C2770       C  0.38256179  0.26464133  0.02091275     0.04600
C2771       C  0.38088111  0.24829452  0.99417026     0.27100
C2772       C  0.41432043  0.25191121  0.98888871    -0.13400
C2773       C  0.41348458  0.25251357  0.97865579     0.05100
C2774       C  0.37866724  0.25051095  0.97355953    -0.09400
C2775       C  0.34499497  0.24704028  0.97889614     0.06000
C2776       C  0.34626183  0.24559613  0.98917535    -0.13700
Br2777     Br  0.36952893  0.29287506  0.00438454    -0.05800
Br2778     Br  0.40941175  0.19939220  0.02570481    -0.00200
Br2779     Br  0.46109681  0.25485108  0.97180486     0.00300
Br2780     Br  0.30068031  0.24007309  0.99648445    -0.04100
Br2781     Br  0.37468591  0.29020993  0.02861084     0.00400
Br2782     Br  0.39792134  0.20186000  0.00165025    -0.03400
Br2783     Br  0.46148942  0.25616319  0.99579513    -0.04300
Br2784     Br  0.29689011  0.24551813  0.97225586    -0.00300
C2785       C  0.54504290  0.24453856  0.93699655     0.01100
C2786       C  0.56665155  0.23725286  0.94506932     0.03900
C2787       C  0.60636738  0.23617963  0.94448000    -0.12100
C2788       C  0.62501071  0.24215334  0.93584986     0.23200
C2789       C  0.60368382  0.24762982  0.92753183    -0.12700
C2790       C  0.56381152  0.24849464  0.92802208     0.04600
C2791       C  0.66708632  0.24187842  0.93547121     0.27100
C2792       C  0.68821192  0.25902024  0.93945867    -0.13400
C2793       C  0.72811351  0.25870300  0.93910791     0.05100
C2794       C  0.74704201  0.24114599  0.93483017    -0.09400
C2795       C  0.72572989  0.22388064  0.93092926     0.06000
C2796       C  0.68596051  0.22417611  0.93135487    -0.13700
Br2797     Br  0.62940301  0.25394593  0.91543677    -0.05800
Br2798     Br  0.54229904  0.22683747  0.95677541    -0.00200
Br2799     Br  0.75664900  0.28293728  0.94390156     0.00300
Br2800     Br  0.65709008  0.20005772  0.92650944    -0.04100
Br2801     Br  0.53606268  0.25481218  0.91623354     0.00400
Br2802     Br  0.63565891  0.22604698  0.95544917    -0.03400
Br2803     Br  0.66229329  0.28289901  0.94543122    -0.04300
Br2804     Br  0.75067783  0.19941452  0.92509985    -0.00300
C2805       C  0.24636926  0.24564976  0.93623392     0.01100
C2806       C  0.22295656  0.23032228  0.93151816     0.03900
C2807       C  0.18346912  0.23257921  0.93168172    -0.12100
C2808       C  0.16677588  0.24934992  0.93699567     0.23200
C2809       C  0.18967377  0.26434564  0.94195414    -0.12700
C2810       C  0.22948576  0.26272164  0.94146949     0.04600
C2811       C  0.12496474  0.25027827  0.93768345     0.27100
C2812       C  0.10380432  0.26142209  0.93060654    -0.13400
C2813       C  0.06395967  0.26087003  0.93086526     0.05100
C2814       C  0.04520151  0.24911416  0.93823212    -0.09400
C2815       C  0.06661268  0.23768806  0.94522563     0.06000
C2816       C  0.10635722  0.23823057  0.94491505    -0.13700
Br2817     Br  0.16616910  0.28720084  0.94926835    -0.05800
Br2818     Br  0.24422773  0.20531270  0.92518196    -0.00200
Br2819     Br  0.03541814  0.27700420  0.92135236     0.00300
Br2820     Br  0.13565994  0.22188992  0.95420326    -0.04100
Br2821     Br  0.26035670  0.28456181  0.94753192     0.00400
Br2822     Br  0.15178483  0.21272976  0.92453095    -0.03400
Br2823     Br  0.12970331  0.27709337  0.92047346    -0.04300
Br2824     Br  0.04176061  0.22042179  0.95502927    -0.00300
C2825       C  0.28333759  0.06733418  0.93697606     0.01100
C2826       C  0.31211208  0.07327700  0.94362325     0.03900
C2827       C  0.32470153  0.09481716  0.94415698    -0.12100
C2828       C  0.30871533  0.11065379  0.93805520     0.23200
C2829       C  0.27974260  0.10474067  0.93148097    -0.12700
C2830       C  0.26735025  0.08320078  0.93089037     0.04600
C2831       C  0.32278034  0.13340501  0.93834219     0.27100
C2832       C  0.30280193  0.14923140  0.94361474    -0.13400
C2833       C  0.31418118  0.17099614  0.94320841     0.05100
C2834       C  0.34568492  0.17717867  0.93749144    -0.09400
C2835       C  0.36698994  0.16115117  0.93272549     0.06000
C2836       C  0.35533155  0.13944224  0.93302545    -0.13700
Br2837     Br  0.25769103  0.12618504  0.92307934    -0.05800
Br2838     Br  0.33646271  0.05161260  0.95148381    -0.00200
Br2839     Br  0.28518650  0.19244159  0.95009142     0.00300
Br2840     Br  0.38280069  0.11807515  0.92571376    -0.04100
Br2841     Br  0.22855394  0.07533390  0.92164021     0.00400
Br2842     Br  0.36471347  0.10261528  0.95305398    -0.03400
Br2843     Br  0.25864245  0.14110537  0.95102476    -0.04300
Br2844     Br  0.41281951  0.16902826  0.92598494    -0.00300
C2845       C  0.42905093  0.24062751  0.89982051     0.01100
C2846       C  0.43155181  0.26095606  0.89523909     0.03900
C2847       C  0.44010136  0.26237145  0.88523791    -0.12100
C2848       C  0.44606010  0.24358120  0.87975053     0.23200
C2849       C  0.44500136  0.22338241  0.88435535    -0.12700
C2850       C  0.43670326  0.22188560  0.89437093     0.04600
C2851       C  0.45371034  0.24501136  0.86912853     0.27100
C2852       C  0.42367594  0.24352591  0.86239101    -0.13400
C2853       C  0.43111513  0.24392551  0.85229896     0.05100
C2854       C  0.46867319  0.24600474  0.84891524    -0.09400
C2855       C  0.49863199  0.24787462  0.85570619     0.06000
C2856       C  0.49111810  0.24739495  0.86577650    -0.13700
Br2857     Br  0.45518415  0.19778489  0.87687190    -0.05800
Br2858     Br  0.42136345  0.28702897  0.90241864    -0.00200
Br2859     Br  0.39005596  0.24028308  0.84316937     0.00300
Br2860     Br  0.53197677  0.24998439  0.87506124    -0.04100
Br2861     Br  0.43793588  0.19421023  0.90067580     0.00400
Br2862     Br  0.44332711  0.29004350  0.87895149    -0.03400
Br2863     Br  0.37238373  0.24074063  0.86706292    -0.04300
Br2864     Br  0.55007798  0.25176766  0.85127002    -0.00300
C2865       C  0.70843287  0.82145504  0.81401456     0.01100
C2866       C  0.72845883  0.83470386  0.80742225     0.03900
C2867       C  0.72411827  0.85713300  0.80775932    -0.12100
C2868       C  0.70066663  0.86656927  0.81487187     0.23200
C2869       C  0.68290627  0.85353800  0.82192028    -0.12700
C2870       C  0.68654841  0.83100321  0.82147706     0.04600
C2871       C  0.69354796  0.89009195  0.81460685     0.27100
C2872       C  0.72068119  0.90454327  0.81833985    -0.13400
C2873       C  0.71559605  0.92682025  0.81718098     0.05100
C2874       C  0.68329695  0.93469298  0.81231913    -0.09400
C2875       C  0.65531574  0.92032921  0.80901597     0.06000
C2876       C  0.66052340  0.89805245  0.81008512    -0.13700
Br2877     Br  0.65250991  0.86669020  0.83196149    -0.05800
Br2878     Br  0.76247114  0.82218065  0.79796255    -0.00200
Br2879     Br  0.75356707  0.94653181  0.82191624     0.00300
Br2880     Br  0.62312702  0.87838542  0.80501641    -0.04100
Br2881     Br  0.65936504  0.81341365  0.83071670     0.00400
Br2882     Br  0.74902903  0.87496351  0.79818716    -0.03400
Br2883     Br  0.76536943  0.89369225  0.82474332    -0.04300
Br2884     Br  0.60973084  0.93133743  0.80311698    -0.00300
C2885       C  0.19687187  0.81782272  0.81328371     0.01100
C2886       C  0.21897367  0.82760667  0.82072126     0.03900
C2887       C  0.21703091  0.85000424  0.82226638    -0.12100
C2888       C  0.19527240  0.86298926  0.81601606     0.23200
C2889       C  0.17378346  0.85344298  0.80854216    -0.12700
C2890       C  0.17305960  0.83100085  0.80746741     0.04600
C2891       C  0.19541011  0.88679909  0.81695976     0.27100
C2892       C  0.16384573  0.89748748  0.82097138    -0.13400
C2893       C  0.16001470  0.91990741  0.81989322     0.05100
C2894       C  0.18809459  0.93171316  0.81490365    -0.09400
C2895       C  0.22164240  0.92125931  0.81191071     0.06000
C2896       C  0.22503693  0.89883726  0.81279213    -0.13700
Br2897     Br  0.14619359  0.87137061  0.79948970    -0.05800
Br2898     Br  0.25412329  0.81114951  0.82847854    -0.00200
Br2899     Br  0.11532169  0.93403725  0.82474465     0.00300
Br2900     Br  0.26951582  0.88446647  0.80786479    -0.04100
Br2901     Br  0.13720584  0.81881073  0.79831354     0.00400
Br2902     Br  0.24456722  0.86316001  0.83286335    -0.03400
Br2903     Br  0.12524948  0.88109523  0.82758027    -0.04300
Br2904     Br  0.26355475  0.93773563  0.80682169    -0.00300
C2905       C  0.89018711  0.74232775  0.81221603     0.01100
C2906       C  0.90926526  0.75731543  0.80625478     0.03900
C2907       C  0.94923647  0.75786685  0.80614176    -0.12100
C2908       C  0.97025526  0.74352175  0.81197094     0.23200
C2909       C  0.95136095  0.72808638  0.81763924    -0.12700
C2910       C  0.91159601  0.72713397  0.81759494     0.04600
C2911       C  0.01232164  0.74423906  0.81194810     0.27100
C2912       C  0.03277124  0.73086315  0.80556393    -0.13400
C2913       C  0.07255261  0.73190097  0.80531013     0.05100
C2914       C  0.09209701  0.74653034  0.81136841    -0.09400
C2915       C  0.07164062  0.75956597  0.81792568     0.06000
C2916       C  0.03185262  0.75819585  0.81830094    -0.13700
Br2917     Br  0.98023433  0.70859319  0.82567862    -0.05800
Br2918     Br  0.88110244  0.77770715  0.79857106    -0.00200
Br2919     Br  0.10023771  0.71288976  0.79678854     0.00300
Br2920     Br  0.00390206  0.77553318  0.82745491    -0.04100
Br2921     Br  0.88678792  0.70418642  0.82463951     0.00400
Br2922     Br  0.97555900  0.77866942  0.79823008    -0.03400
Br2923     Br  0.00600655  0.71121884  0.79712215    -0.04300
Br2924     Br  0.09778988  0.78045876  0.82587376    -0.00300
C2925       C  0.39032262  0.75229161  0.81521461     0.01100
C2926       C  0.41125280  0.75070214  0.80639617     0.03900
C2927       C  0.45109007  0.75247585  0.80653434    -0.12100
C2928       C  0.47033484  0.75643091  0.81533911     0.23200
C2929       C  0.44983524  0.75948805  0.82397574    -0.12700
C2930       C  0.41018549  0.75729388  0.82399703     0.04600
C2931       C  0.51234541  0.75717207  0.81554996     0.27100
C2932       C  0.53316505  0.73851306  0.81780596    -0.13400
C2933       C  0.57304041  0.73887471  0.81748026     0.05100
C2934       C  0.59211307  0.75789668  0.81482710    -0.09400
C2935       C  0.57118985  0.77679554  0.81301365     0.06000
C2936       C  0.53142910  0.77646136  0.81345317    -0.13700
Br2937     Br  0.47672023  0.76689405  0.83580049    -0.05800
Br2938     Br  0.38678273  0.74553314  0.79401914    -0.00200
Br2939     Br  0.60126384  0.71298565  0.82003479     0.00300
Br2940     Br  0.50286313  0.80233913  0.81108509    -0.04100
Br2941     Br  0.38426376  0.76217215  0.83624875     0.00400
Br2942     Br  0.47992381  0.74919078  0.79466098    -0.03400
Br2943     Br  0.50673528  0.71236286  0.82108332    -0.04300
Br2944     Br  0.59695045  0.80323562  0.80984971    -0.00300
C2945       C  0.63301179  0.75390761  0.97425867     0.01100
C2946       C  0.66789286  0.75581236  0.97931593     0.03900
C2947       C  0.66864442  0.75664230  0.98954365    -0.12100
C2948       C  0.63506607  0.75414370  0.99489969     0.23200
C2949       C  0.60013705  0.75230587  0.98995712    -0.12700
C2950       C  0.59900874  0.75253163  0.97964807     0.04600
C2951       C  0.63751642  0.75178761  0.00568112     0.27100
C2952       C  0.64630925  0.73157518  0.00969352    -0.13400
C2953       C  0.65032930  0.72918279  0.01983844     0.05100
C2954       C  0.64568580  0.74699043  0.02608633    -0.09400
C2955       C  0.63875994  0.76749142  0.02202354     0.06000
C2956       C  0.63450660  0.76982809  0.01184236    -0.13700
Br2957     Br  0.55400527  0.74970600  0.99736791    -0.05800
Br2958     Br  0.71564809  0.75569709  0.97245266    -0.00200
Br2959     Br  0.66353429  0.70152377  0.02515087     0.00300
Br2960     Br  0.62435744  0.79765730  0.00626136    -0.04100
Br2961     Br  0.55091626  0.75202555  0.97297615     0.00400
Br2962     Br  0.71592648  0.76122715  0.99634045    -0.03400
Br2963     Br  0.65310089  0.70712048  0.00121464    -0.04300
Br2964     Br  0.63326546  0.79227736  0.03036532    -0.00300
C2965       C  0.69249616  0.81386165  0.93409101     0.01100
C2966       C  0.66320433  0.82342919  0.92854484     0.03900
C2967       C  0.66326365  0.84579547  0.92690290    -0.12100
C2968       C  0.69125898  0.85884145  0.93121812     0.23200
C2969       C  0.72123310  0.84927577  0.93640016    -0.12700
C2970       C  0.72243905  0.82686659  0.93759671     0.04600
C2971       C  0.68683463  0.88259914  0.93139500     0.27100
C2972       C  0.70907100  0.89590287  0.92536555    -0.13400
C2973       C  0.70812777  0.91843530  0.92654885     0.05100
C2974       C  0.68455149  0.92771916  0.93376468    -0.09400
C2975       C  0.65943294  0.91432029  0.93904457     0.06000
C2976       C  0.66143285  0.89189772  0.93807796    -0.13700
Br2977     Br  0.75949172  0.86705353  0.94242408    -0.05800
Br2978     Br  0.62072364  0.80670437  0.92403742    -0.00200
Br2979     Br  0.74024155  0.93607633  0.91846338     0.00300
Br2980     Br  0.63044638  0.87378784  0.94628933    -0.04100
Br2981     Br  0.76557490  0.81413921  0.94407290     0.00400
Br2982     Br  0.62394909  0.85895775  0.91916832    -0.03400
Br2983     Br  0.74165270  0.88301121  0.91571403    -0.04300
Br2984     Br  0.62047242  0.92649398  0.94728384    -0.00300
C2985       C  0.68134056  0.73560235  0.90081032     0.01100
C2986       C  0.68788652  0.71642680  0.89554698     0.03900
C2987       C  0.69422765  0.71719883  0.88542808    -0.12100
C2988       C  0.69379118  0.73705230  0.88054623     0.23200
C2989       C  0.68812300  0.75619441  0.88576825    -0.12700
C2990       C  0.68226342  0.75555824  0.89588305     0.04600
C2991       C  0.70114971  0.73813292  0.86996326     0.27100
C2992       C  0.73853004  0.74072065  0.86664785    -0.13400
C2993       C  0.74567232  0.74317876  0.85665404     0.05100
C2994       C  0.71538009  0.74294269  0.84993072    -0.09400
C2995       C  0.67788988  0.74041112  0.85326331     0.06000
C2996       C  0.67080501  0.73798944  0.86329449    -0.13700
Br2997     Br  0.68822921  0.78333179  0.87894111    -0.05800
Br2998     Br  0.69035629  0.68915656  0.90217018    -0.00200
Br2999     Br  0.79702504  0.74776885  0.85225562     0.00300
Br3000     Br  0.61966915  0.73445769  0.86796862    -0.04100
Br3001     Br  0.67408515  0.78224672  0.90275201     0.00400
Br3002     Br  0.70401795  0.69118302  0.87819873    -0.03400
Br3003     Br  0.77982430  0.74115608  0.87588406    -0.04300
Br3004     Br  0.63645222  0.73932709  0.84411456    -0.00300
C3005       C  0.11924114  0.74961598  0.97483132     0.01100
C3006       C  0.11067636  0.76837144  0.98020006     0.03900
C3007       C  0.11373049  0.76842843  0.99043744    -0.12100
C3008       C  0.12443112  0.74958970  0.99542398     0.23200
C3009       C  0.13030675  0.73044560  0.99013355    -0.12700
C3010       C  0.12794956  0.73045794  0.97986672     0.04600
C3011       C  0.12909506  0.74995670  0.00622758     0.27100
C3012       C  0.16554201  0.75059268  0.01049277    -0.13400
C3013       C  0.16963798  0.75057186  0.02074681     0.05100
C3014       C  0.13727543  0.75068957  0.02675272    -0.09400
C3015       C  0.10099303  0.75170032  0.02241884     0.06000
C3016       C  0.09687983  0.75029661  0.01225418    -0.13700
Br3017     Br  0.14277330  0.70432926  0.99697764    -0.05800
Br3018     Br  0.09425134  0.79403928  0.97353383    -0.00200
Br3019     Br  0.21931621  0.74955844  0.02653967     0.00300
Br3020     Br  0.04696139  0.74785308  0.00659628    -0.04100
Br3021     Br  0.13967876  0.70454041  0.97274870     0.00400
Br3022     Br  0.10470742  0.79460059  0.99763368    -0.03400
Br3023     Br  0.20976936  0.75096031  0.00225382    -0.04300
Br3024     Br  0.05662367  0.75638119  0.03033851    -0.00300
C3025       C  0.18346751  0.92986345  0.93663977     0.01100
C3026       C  0.16040592  0.91653891  0.94255680     0.03900
C3027       C  0.16258113  0.89405066  0.94178579    -0.12100
C3028       C  0.18585492  0.88447944  0.93467595     0.23200
C3029       C  0.20594061  0.89763851  0.92809461    -0.12700
C3030       C  0.20510658  0.92025820  0.92909782     0.04600
C3031       C  0.18909822  0.86056936  0.93433732     0.27100
C3032       C  0.21988686  0.85027579  0.93890832    -0.13400
C3033       C  0.21988861  0.82778525  0.94007285     0.05100
C3034       C  0.18882933  0.81536611  0.93678749    -0.09400
C3035       C  0.15895382  0.82558576  0.93176441     0.06000
C3036       C  0.15935144  0.84807396  0.93045360    -0.13700
Br3037     Br  0.23473302  0.88446486  0.91775146    -0.05800
Br3038     Br  0.12339295  0.92885207  0.95133060    -0.00200
Br3039     Br  0.26275249  0.81399903  0.94619934     0.00300
Br3040     Br  0.11828049  0.86209182  0.92371878    -0.04100
Br3041     Br  0.23449944  0.93759208  0.92022231     0.00400
Br3042     Br  0.13406879  0.87620600  0.95067755    -0.03400
Br3043     Br  0.26139560  0.86713825  0.94395592    -0.04300
Br3044     Br  0.11575546  0.80923943  0.92744538    -0.00300
C3045       C  0.00152539  0.73870880  0.93644356     0.01100
C3046       C  0.97996566  0.72303400  0.93139005     0.03900
C3047       C  0.94019475  0.72391554  0.93148841    -0.12100
C3048       C  0.92153398  0.73954500  0.93711245     0.23200
C3049       C  0.94279712  0.75423533  0.94270849    -0.12700
C3050       C  0.98268250  0.75409976  0.94226593     0.04600
C3051       C  0.87948911  0.74052984  0.93714576     0.27100
C3052       C  0.86048349  0.75524550  0.93106266    -0.13400
C3053       C  0.82071624  0.75688387  0.93140706     0.05100
C3054       C  0.79981568  0.74369934  0.93780402    -0.09400
C3055       C  0.81876276  0.72823811  0.94352214     0.06000
C3056       C  0.85851948  0.72676822  0.94325123    -0.13700
Br3057     Br  0.91693302  0.77463269  0.95093914    -0.05800
Br3058     Br  0.00437573  0.69928492  0.92481055    -0.00200
Br3059     Br  0.79508433  0.77776988  0.92339702     0.00300
Br3060     Br  0.88448902  0.70613594  0.95133827    -0.04100
Br3061     Br  0.01086900  0.77569839  0.94931459     0.00400
Br3062     Br  0.91102700  0.70387846  0.92378710    -0.03400
Br3063     Br  0.88920472  0.77328019  0.92233938    -0.04300
Br3064     Br  0.79005344  0.70856188  0.95148867    -0.00300
C3065       C  0.30000043  0.74911000  0.94052513     0.01100
C3066       C  0.32132951  0.74053640  0.94840654     0.03900
C3067       C  0.36115764  0.74007375  0.94798779    -0.12100
C3068       C  0.38017521  0.74795351  0.93973729     0.23200
C3069       C  0.35938609  0.75680422  0.93195763    -0.12700
C3070       C  0.31947524  0.75738870  0.93231386     0.04600
C3071       C  0.42206129  0.74613077  0.93910253     0.27100
C3072       C  0.44549439  0.76299186  0.94237528    -0.13400
C3073       C  0.48514723  0.76139823  0.94147484     0.05100
C3074       C  0.50154696  0.74259860  0.93758088    -0.09400
C3075       C  0.47796439  0.72539066  0.93463953     0.06000
C3076       C  0.43837955  0.72728275  0.93530675    -0.13700
Br3077     Br  0.38606259  0.76853745  0.92089376    -0.05800
Br3078     Br  0.29680724  0.72850318  0.95976949    -0.00200
Br3079     Br  0.51663963  0.78555138  0.94496541     0.00300
Br3080     Br  0.40621318  0.70401839  0.93102837    -0.04100
Br3081     Br  0.29221542  0.77077083  0.92172824     0.00400
Br3082     Br  0.39022948  0.72871006  0.95875194    -0.03400
Br3083     Br  0.42301484  0.78821898  0.94810416    -0.04300
Br3084     Br  0.49959231  0.69880028  0.92995173    -0.00300
C3085       C  0.18303130  0.73987072  0.90143013     0.01100
C3086       C  0.19517197  0.72184651  0.89602097     0.03900
C3087       C  0.19760158  0.72290204  0.88576345    -0.12100
C3088       C  0.18954803  0.74225665  0.88084794     0.23200
C3089       C  0.17815027  0.76039563  0.88623839    -0.12700
C3090       C  0.17448823  0.75916814  0.89646887     0.04600
C3091       C  0.19549396  0.74389253  0.87009857     0.27100
C3092       C  0.23198134  0.74829409  0.86647016    -0.13400
C3093       C  0.23848424  0.74890575  0.85635427     0.05100
C3094       C  0.20855483  0.74505970  0.84974126    -0.09400
C3095       C  0.17161088  0.74169844  0.85334788     0.06000
C3096       C  0.16513059  0.74107538  0.86351464    -0.13700
Br3097     Br  0.16704335  0.78684789  0.87950689    -0.05800
Br3098     Br  0.21043685  0.69601797  0.90270472    -0.00200
Br3099     Br  0.28847515  0.75576658  0.85154688     0.00300
Br3100     Br  0.11484792  0.73604246  0.86847269    -0.04100
Br3101     Br  0.15570975  0.78368797  0.90357202     0.00400
Br3102     Br  0.21115477  0.69769646  0.87836762    -0.03400
Br3103     Br  0.27314536  0.75351813  0.87542805    -0.04300
Br3104     Br  0.13029516  0.73693923  0.84440968    -0.00300
C3105       C  0.93179765  0.43121574  0.81367466     0.01100
C3106       C  0.90303193  0.42071746  0.81903630     0.03900
C3107       C  0.90370869  0.39817094  0.82011326    -0.12100
C3108       C  0.93317286  0.38604822  0.81590002     0.23200
C3109       C  0.96292815  0.39662382  0.81102533    -0.12700
C3110       C  0.96235686  0.41907870  0.80994740     0.04600
C3111       C  0.93190952  0.36214136  0.81584239     0.27100
C3112       C  0.95499132  0.35016982  0.82221084    -0.13400
C3113       C  0.95972685  0.32786023  0.82078249     0.05100
C3114       C  0.94051032  0.31735127  0.81304718    -0.09400
C3115       C  0.91371084  0.32910764  0.80750867     0.06000
C3116       C  0.91025417  0.35144220  0.80872664    -0.13700
Br3117     Br  0.00388562  0.38013771  0.80545349    -0.05800
Br3118     Br  0.86128452  0.43678448  0.82436964    -0.00200
Br3119     Br  0.99386966  0.31240627  0.82923036     0.00300
Br3120     Br  0.87669719  0.36759860  0.80037407    -0.04100
Br3121     Br  0.00408977  0.43318698  0.80344807     0.00400
Br3122     Br  0.86352865  0.38364537  0.82699435    -0.03400
Br3123     Br  0.98077067  0.36472484  0.83271834    -0.04300
Br3124     Br  0.87976438  0.31468518  0.79856451    -0.00300
C3125       C  0.84109604  0.57048892  0.81283668     0.01100
C3126       C  0.81082679  0.57584472  0.80651522     0.03900
C3127       C  0.79680555  0.59701953  0.80625556    -0.12100
C3128       C  0.81348462  0.61306246  0.81207698     0.23200
C3129       C  0.84459867  0.60796541  0.81808291    -0.12700
C3130       C  0.85854887  0.58681207  0.81839808     0.04600
C3131       C  0.79909929  0.63547838  0.81176804     0.27100
C3132       C  0.81206803  0.64964361  0.80449423    -0.13400
C3133       C  0.80325849  0.67166065  0.80501992     0.05100
C3134       C  0.78097586  0.67953488  0.81279170    -0.09400
C3135       C  0.76535647  0.66498907  0.81959015     0.06000
C3136       C  0.77441391  0.64300718  0.81907526    -0.13700
Br3137     Br  0.86721006  0.62990373  0.82616593    -0.05800
Br3138     Br  0.78647322  0.55411351  0.79864698    -0.00200
Br3139     Br  0.82473893  0.69109075  0.79555006     0.00300
Br3140     Br  0.75378914  0.62318347  0.82848574    -0.04100
Br3141     Br  0.90228210  0.58027780  0.82629255     0.00400
Br3142     Br  0.75330800  0.60398142  0.79835017    -0.03400
Br3143     Br  0.84318569  0.63887172  0.79401480    -0.04300
Br3144     Br  0.73150642  0.67520706  0.82962628    -0.00300
C3145       C  0.43303228  0.43646181  0.81734036     0.01100
C3146       C  0.40237849  0.42254526  0.81553255     0.03900
C3147       C  0.40705786  0.40019360  0.81652211    -0.12100
C3148       C  0.44239335  0.39171795  0.81937597     0.23200
C3149       C  0.47185621  0.40577286  0.82209910    -0.12700
C3150       C  0.46735611  0.42810036  0.82095488     0.04600
C3151       C  0.45009035  0.36838654  0.81806233     0.27100
C3152       C  0.43860798  0.35329043  0.82509391    -0.13400
C3153       C  0.44133432  0.33108402  0.82310763     0.05100
C3154       C  0.45813881  0.32381482  0.81429141    -0.09400
C3155       C  0.47227529  0.33921017  0.80761139     0.06000
C3156       C  0.46700699  0.36128465  0.80934279    -0.13700
Br3157     Br  0.51902858  0.39425114  0.82685577    -0.05800
Br3158     Br  0.35452404  0.43418386  0.81130161    -0.00200
Br3159     Br  0.41834934  0.31116348  0.83213864     0.00300
Br3160     Br  0.48134272  0.38196352  0.79950576    -0.04100
Br3161     Br  0.50942615  0.44701075  0.82343264     0.00400
Br3162     Br  0.36587236  0.38105047  0.81336989    -0.03400
Br3163     Br  0.41814215  0.36328040  0.83732415    -0.04300
Br3164     Br  0.49994308  0.33046418  0.79611563    -0.00300
C3165       C  0.53937311  0.50761777  0.81448696     0.01100
C3166       C  0.56188066  0.51358782  0.80635686     0.03900
C3167       C  0.60163012  0.51320326  0.80696517    -0.12100
C3168       C  0.61944420  0.50802645  0.81581681     0.23200
C3169       C  0.59732141  0.50411337  0.82418456    -0.12700
C3170       C  0.55739671  0.50384255  0.82355002     0.04600
C3171       C  0.66152393  0.50719949  0.81630092     0.27100
C3172       C  0.68103788  0.48841096  0.81350717    -0.13400
C3173       C  0.72098253  0.48798972  0.81352468     0.05100
C3174       C  0.74155864  0.50621536  0.81655525    -0.09400
C3175       C  0.72185327  0.52487470  0.81955168     0.06000
C3176       C  0.68205230  0.52547284  0.81922943    -0.13700
Br3177     Br  0.62209010  0.49862518  0.83647001    -0.05800
Br3178     Br  0.53869230  0.52379953  0.79446817    -0.00200
Br3179     Br  0.74746061  0.46211846  0.80989870     0.00300
Br3180     Br  0.65540802  0.55147066  0.82265129    -0.04100
Br3181     Br  0.52829425  0.49766099  0.83510922     0.00400
Br3182     Br  0.63205327  0.51946687  0.79560785    -0.03400
Br3183     Br  0.65277711  0.46322638  0.80974397    -0.04300
Br3184     Br  0.74905636  0.54991487  0.82405664    -0.00300
C3185       C  0.24058988  0.50497081  0.80933097     0.01100
C3186       C  0.22241946  0.48756304  0.80471092     0.03900
C3187       C  0.18252435  0.48714976  0.80402546    -0.12100
C3188       C  0.16087183  0.50417054  0.80790088     0.23200
C3189       C  0.17915404  0.52226320  0.81182817    -0.12700
C3190       C  0.21880247  0.52266198  0.81256955     0.04600
C3191       C  0.11887624  0.50288545  0.80817596     0.27100
C3192       C  0.09723400  0.51231691  0.80072018    -0.13400
C3193       C  0.05744542  0.51175380  0.80116667     0.05100
C3194       C  0.03893920  0.50074048  0.80884845    -0.09400
C3195       C  0.06081387  0.49153337  0.81640206     0.06000
C3196       C  0.10062268  0.49307140  0.81615539    -0.13700
Br3197     Br  0.14957549  0.54637504  0.81635899    -0.05800
Br3198     Br  0.25189273  0.46389249  0.79980314    -0.00200
Br3199     Br  0.02862925  0.52725396  0.79147617     0.00300
Br3200     Br  0.13046579  0.48190042  0.82679299    -0.04100
Br3201     Br  0.24297275  0.54773493  0.81804285     0.00400
Br3202     Br  0.15719605  0.46319283  0.79795511    -0.03400
Br3203     Br  0.12242255  0.52609003  0.78990923    -0.04300
Br3204     Br  0.03692175  0.47568585  0.82682815    -0.00300
C3205       C  0.33992482  0.57125091  0.81111146     0.01100
C3206       C  0.31782397  0.57844620  0.80318099     0.03900
C3207       C  0.30711520  0.60016149  0.80263135    -0.12100
C3208       C  0.31819738  0.61453885  0.81002435     0.23200
C3209       C  0.34165909  0.60754848  0.81769051    -0.12700
C3210       C  0.35292038  0.58601129  0.81815836     0.04600
C3211       C  0.30623443  0.63723363  0.80970654     0.27100
C3212       C  0.33201681  0.65285872  0.80645268    -0.13400
C3213       C  0.32355644  0.67468913  0.80763389     0.05100
C3214       C  0.28840320  0.68098491  0.81157623    -0.09400
C3215       C  0.26154598  0.66532134  0.81423447     0.06000
C3216       C  0.27078635  0.64340872  0.81350797    -0.13700
Br3217     Br  0.35759002  0.62742634  0.82770900    -0.05800
Br3218     Br  0.30001073  0.55849410  0.79342227    -0.00200
Br3219     Br  0.36210794  0.69568480  0.80491467     0.00300
Br3220     Br  0.23614586  0.62190338  0.81830521    -0.04100
Br3221     Br  0.38665392  0.57677501  0.82842470     0.00400
Br3222     Br  0.27654769  0.61026697  0.79192068    -0.03400
Br3223     Br  0.38004441  0.64418723  0.80097729    -0.04300
Br3224     Br  0.21249771  0.67400201  0.81899337    -0.00300
C3225       C  0.01139672  0.48826404  0.97350456     0.01100
C3226       C  0.01175184  0.46868601  0.97876161     0.03900
C3227       C  0.00763890  0.46870008  0.98897878    -0.12100
C3228       C  0.00477000  0.48827717  0.99406012     0.23200
C3229       C  0.00684858  0.50782757  0.98891396    -0.12700
C3230       C  0.00917436  0.50786428  0.97866486     0.04600
C3231       C  0.00047169  0.48864380  0.00484378     0.27100
C3232       C  0.96493627  0.49302294  0.00912078    -0.13400
C3233       C  0.96220077  0.49713559  0.01922038     0.05100
C3234       C  0.99492298  0.49637156  0.02509331    -0.09400
C3235       C  0.02997771  0.49059099  0.02084713     0.06000
C3236       C  0.03271418  0.48673274  0.01078184    -0.13700
Br3237     Br  0.00582249  0.53465212  0.99598518    -0.05800
Br3238     Br  0.01820479  0.44168325  0.97201528    -0.00200
Br3239     Br  0.91442172  0.50556967  0.02482497     0.00300
Br3240     Br  0.08096418  0.47935160  0.00504440    -0.04100
Br3241     Br  0.00529399  0.53480385  0.97178659     0.00400
Br3242     Br  0.00492070  0.44192450  0.99603059    -0.03400
Br3243     Br  0.92029160  0.49375885  0.00103896    -0.04300
Br3244     Br  0.07479513  0.48783049  0.02874261    -0.00300
C3245       C  0.93672500  0.42962503  0.93496326     0.01100
C3246       C  0.96390888  0.41878434  0.92919304     0.03900
C3247       C  0.96208098  0.39629470  0.92811848    -0.12100
C3248       C  0.93438077  0.38439353  0.93315768     0.23200
C3249       C  0.90625906  0.39519468  0.93853540    -0.12700
C3250       C  0.90657713  0.41774705  0.93912080     0.04600
C3251       C  0.93646345  0.36054978  0.93343844     0.27100
C3252       C  0.91059474  0.34791354  0.92810409    -0.13400
C3253       C  0.90972256  0.32545486  0.92938659     0.05100
C3254       C  0.93661328  0.31538188  0.93548849    -0.09400
C3255       C  0.96464817  0.32802995  0.94014140     0.06000
C3256       C  0.96356312  0.35052902  0.93943738    -0.13700
Br3257     Br  0.86843867  0.37899994  0.94557250    -0.05800
Br3258     Br  0.00548251  0.43404778  0.92327980    -0.00200
Br3259     Br  0.86946268  0.30909084  0.92347076     0.00300
Br3260     Br  0.99825594  0.36772261  0.94706280    -0.04100
Br3261     Br  0.86459286  0.43227050  0.94531440     0.00400
Br3262     Br  0.99839699  0.38147925  0.92003052    -0.03400
Br3263     Br  0.87592498  0.36156157  0.91918427    -0.04300
Br3264     Br  0.00559319  0.31468931  0.94729180    -0.00300
C3265       C  0.03876573  0.56522537  0.93803546     0.01100
C3266       C  0.06505088  0.57195101  0.94519286     0.03900
C3267       C  0.07672947  0.59359326  0.94565157    -0.12100
C3268       C  0.06148686  0.60884877  0.93918064     0.23200
C3269       C  0.03305220  0.60255902  0.93254724    -0.12700
C3270       C  0.02182476  0.58085187  0.93194526     0.04600
C3271       C  0.07596963  0.63137955  0.93925261     0.27100
C3272       C  0.05776869  0.64723118  0.94488386    -0.13400
C3273       C  0.07087040  0.66866393  0.94471682     0.05100
C3274       C  0.10216776  0.67442586  0.93881921    -0.09400
C3275       C  0.12166454  0.65823936  0.93367136     0.06000
C3276       C  0.10851823  0.63684795  0.93383354    -0.13700
Br3277     Br  0.01020192  0.62366829  0.92411074    -0.05800
Br3278     Br  0.08694539  0.55163610  0.95409760    -0.00200
Br3279     Br  0.04450165  0.69016918  0.95221973     0.00300
Br3280     Br  0.13454585  0.61503068  0.92643870    -0.04100
Br3281     Br  0.98268171  0.57260436  0.92282005     0.00400
Br3282     Br  0.11497887  0.60238534  0.95488455    -0.03400
Br3283     Br  0.01412629  0.63949084  0.95259129    -0.04300
Br3284     Br  0.16706692  0.66543338  0.92658031    -0.00300
C3285       C  0.93252199  0.50622978  0.84874262     0.01100
C3286       C  0.94662789  0.52439032  0.85369788     0.03900
C3287       C  0.95282203  0.52353131  0.86381363    -0.12100
C3288       C  0.94545841  0.50443215  0.86896627     0.23200
C3289       C  0.93306189  0.48597865  0.86396543    -0.12700
C3290       C  0.92655202  0.48685564  0.85386188     0.04600
C3291       C  0.95041389  0.50386378  0.87967351     0.27100
C3292       C  0.98606509  0.49895704  0.88365936    -0.13400
C3293       C  0.99095515  0.49872708  0.89381358     0.05100
C3294       C  0.96053623  0.50415888  0.90000698    -0.09400
C3295       C  0.92481916  0.50908048  0.89602505     0.06000
C3296       C  0.91966524  0.50867968  0.88585134    -0.13700
Br3297     Br  0.92388247  0.45973812  0.87106518    -0.05800
Br3298     Br  0.95862436  0.55021692  0.84658675    -0.00200
Br3299     Br  0.03916534  0.49027238  0.89925110     0.00300
Br3300     Br  0.87084062  0.51525626  0.88030046    -0.04100
Br3301     Br  0.90715502  0.46182430  0.84720918     0.00400
Br3302     Br  0.97056808  0.54861385  0.87071112    -0.03400
Br3303     Br  0.02837302  0.49310233  0.87516508    -0.04300
Br3304     Br  0.88377147  0.51769247  0.90442595    -0.00300
C3305       C  0.51771525  0.49149955  0.97290737     0.01100
C3306       C  0.51410947  0.51138389  0.97783480     0.03900
C3307       C  0.50997532  0.51187109  0.98807327    -0.12100
C3308       C  0.50941271  0.49262282  0.99347620     0.23200
C3309       C  0.51547421  0.47294304  0.98867375    -0.12700
C3310       C  0.52007802  0.47237679  0.97847026     0.04600
C3311       C  0.50507564  0.49321449  0.00429509     0.27100
C3312       C  0.53756797  0.49399161  0.01020670    -0.13400
C3313       C  0.53404029  0.49533524  0.02040804     0.05100
C3314       C  0.49782403  0.49608976  0.02484090    -0.09400
C3315       C  0.46524511  0.49457224  0.01893105     0.06000
C3316       C  0.46887416  0.49319584  0.00867735    -0.13700
Br3317     Br  0.51720738  0.44670578  0.99614791    -0.05800
Br3318     Br  0.51280555  0.53807932  0.97068890    -0.00200
Br3319     Br  0.57942507  0.49552176  0.02824181     0.00300
Br3320     Br  0.42436630  0.49183602  0.00056947    -0.04100
Br3321     Br  0.53119293  0.44529910  0.97222042     0.00400
Br3322     Br  0.50449639  0.53893533  0.99478243    -0.03400
Br3323     Br  0.58709611  0.49360489  0.00421684    -0.04300
Br3324     Br  0.41575777  0.49556707  0.02484073    -0.00300
C3325       C  0.45631847  0.42883564  0.93311745     0.01100
C3326       C  0.48260561  0.41508357  0.93768360     0.03900
C3327       C  0.47916150  0.39269843  0.93667455    -0.12100
C3328       C  0.44934356  0.38396005  0.93110082     0.23200
C3329       C  0.42550395  0.39770210  0.92572858    -0.12700
C3330       C  0.42927801  0.42015480  0.92662442     0.04600
C3331       C  0.44188021  0.36046997  0.93142437     0.27100
C3332       C  0.46385229  0.34622312  0.92582538    -0.13400
C3333       C  0.46070117  0.32390412  0.92729885     0.05100
C3334       C  0.43423514  0.31566642  0.93405938    -0.09400
C3335       C  0.40966918  0.32996604  0.93893233     0.06000
C3336       C  0.41419889  0.35229758  0.93783509    -0.13700
Br3337     Br  0.38681672  0.38560154  0.91745627    -0.05800
Br3338     Br  0.52384250  0.42702495  0.94518478    -0.00200
Br3339     Br  0.49504067  0.30504033  0.92063413     0.00300
Br3340     Br  0.38363545  0.37176226  0.94545169    -0.04100
Br3341     Br  0.39632119  0.43877794  0.91925830     0.00400
Br3342     Br  0.51448369  0.37397158  0.94322371    -0.03400
Br3343     Br  0.49915497  0.35750349  0.91638612    -0.04300
Br3344     Br  0.36905449  0.31893058  0.94691611    -0.00300
C3345       C  0.83826565  0.50225306  0.93698668     0.01100
C3346       C  0.81914941  0.49110613  0.92946255     0.03900
C3347       C  0.77946679  0.49246884  0.92867909    -0.12100
C3348       C  0.75866521  0.50472340  0.93544460     0.23200
C3349       C  0.77767242  0.51641856  0.94273684    -0.12700
C3350       C  0.81734583  0.51523660  0.94351116     0.04600
C3351       C  0.71667459  0.50487621  0.93504266     0.27100
C3352       C  0.69767154  0.52130538  0.93000731    -0.13400
C3353       C  0.65788130  0.52144034  0.92963230     0.05100
C3354       C  0.63684064  0.50449822  0.93392181    -0.09400
C3355       C  0.65604746  0.48813189  0.93903354     0.06000
C3356       C  0.69581547  0.48863830  0.93977490    -0.13700
Br3357     Br  0.74896594  0.53379338  0.95175008    -0.05800
Br3358     Br  0.84655354  0.47253221  0.92065946    -0.00200
Br3359     Br  0.63264090  0.54572812  0.92372884     0.00300
Br3360     Br  0.72199389  0.46728248  0.94740121    -0.04100
Br3361     Br  0.84284521  0.53180265  0.95344884     0.00400
Br3362     Br  0.75320775  0.47716324  0.91846935    -0.03400
Br3363     Br  0.72645044  0.54372850  0.92370143    -0.04300
Br3364     Br  0.62840006  0.46435292  0.94458648    -0.00300
C3365       C  0.13752541  0.49171861  0.93543795     0.01100
C3366       C  0.15747756  0.49663122  0.94414364     0.03900
C3367       C  0.19738023  0.49757100  0.94412148    -0.12100
C3368       C  0.21788594  0.49226503  0.93566825     0.23200
C3369       C  0.19857024  0.48583615  0.92720834    -0.12700
C3370       C  0.15870031  0.48532716  0.92707872     0.04600
C3371       C  0.25993489  0.49202969  0.93592738     0.27100
C3372       C  0.28071995  0.51098122  0.93419985    -0.13400
C3373       C  0.32041582  0.51098883  0.93522655     0.05100
C3374       C  0.33954918  0.49181224  0.93760672    -0.09400
C3375       C  0.31870942  0.47270286  0.93904374     0.06000
C3376       C  0.27901600  0.47288723  0.93829506    -0.13700
Br3377     Br  0.22722397  0.47809877  0.91572522    -0.05800
Br3378     Br  0.13154206  0.50156143  0.95630766    -0.00200
Br3379     Br  0.34815870  0.53759696  0.93414606     0.00300
Br3380     Br  0.25047924  0.44694425  0.94064263    -0.04100
Br3381     Br  0.13403378  0.47429885  0.91549879     0.00400
Br3382     Br  0.22448220  0.50679726  0.95562386    -0.03400
Br3383     Br  0.25457136  0.53690101  0.93050596    -0.04300
Br3384     Br  0.34433508  0.44605532  0.94191521    -0.00300
C3385       C  0.60426119  0.67551480  0.93997518     0.01100
C3386       C  0.62417441  0.65941157  0.93487640     0.03900
C3387       C  0.61324718  0.63775386  0.93572067    -0.12100
C3388       C  0.58190242  0.63213436  0.94154985     0.23200
C3389       C  0.56385624  0.64794944  0.94723600    -0.12700
C3390       C  0.57514454  0.66959781  0.94651431     0.04600
C3391       C  0.56578795  0.61010477  0.94097119     0.27100
C3392       C  0.53455106  0.60611647  0.93481184    -0.13400
C3393       C  0.52056051  0.58510022  0.93368575     0.05100
C3394       C  0.53808692  0.56787923  0.93858278    -0.09400
C3395       C  0.56863812  0.57198109  0.94499027     0.06000
C3396       C  0.58227532  0.59307148  0.94621399    -0.13700
Br3397     Br  0.52223411  0.63994382  0.95559395    -0.05800
Br3398     Br  0.66616949  0.66712177  0.92660878    -0.00200
Br3399     Br  0.47755786  0.57980420  0.92533126     0.00300
Br3400     Br  0.62484775  0.59857081  0.95467951    -0.04100
Br3401     Br  0.54839384  0.69119258  0.95390108     0.00400
Br3402     Br  0.64013209  0.61587183  0.92854642    -0.03400
Br3403     Br  0.51218657  0.62935956  0.92750003    -0.04300
Br3404     Br  0.59444897  0.54860815  0.95141348    -0.00300
C3405       C  0.44756280  0.51152180  0.90054280     0.01100
C3406       C  0.45895221  0.49556370  0.89388763     0.03900
C3407       C  0.44917624  0.49732106  0.88399285    -0.12100
C3408       C  0.42937698  0.51549657  0.88063132     0.23200
C3409       C  0.41804535  0.53153552  0.88728165    -0.12700
C3410       C  0.42638492  0.52928376  0.89727700     0.04600
C3411       C  0.42046248  0.51736512  0.87009022     0.27100
C3412       C  0.44625482  0.52740881  0.86370154    -0.13400
C3413       C  0.43968032  0.52711550  0.85356622     0.05100
C3414       C  0.40788665  0.51625109  0.84979440    -0.09400
C3415       C  0.38121398  0.50709502  0.85623126     0.06000
C3416       C  0.38754402  0.50760833  0.86635259    -0.13700
Br3417     Br  0.39193677  0.55670836  0.88264654    -0.05800
Br3418     Br  0.48993976  0.47191002  0.89823785    -0.00200
Br3419     Br  0.47278262  0.54264279  0.84490920     0.00300
Br3420     Br  0.35179040  0.49438054  0.87513774    -0.04100
Br3421     Br  0.40778918  0.55001516  0.90656323     0.00400
Br3422     Br  0.46329905  0.47493962  0.87496439    -0.03400
Br3423     Br  0.49090967  0.54113821  0.86887848    -0.04300
Br3424     Br  0.33617915  0.49347110  0.85116652    -0.00300
C3425       C  0.73875404  0.74764784  0.72427280     0.01100
C3426       C  0.75105843  0.76667161  0.72890702     0.03900
C3427       C  0.75542512  0.76718770  0.73911721    -0.12100
C3428       C  0.74834200  0.74859893  0.74468496     0.23200
C3429       C  0.73531277  0.72977468  0.74007591    -0.12700
C3430       C  0.72973933  0.72946826  0.72993335     0.04600
C3431       C  0.75060450  0.74945235  0.75548046     0.27100
C3432       C  0.78522352  0.74622421  0.76039463    -0.13400
C3433       C  0.78664393  0.74711493  0.77067372     0.05100
C3434       C  0.75332713  0.75121377  0.77605492    -0.09400
C3435       C  0.71855078  0.75403632  0.77104092     0.06000
C3436       C  0.71740821  0.75339942  0.76081797    -0.13700
Br3437     Br  0.72534068  0.70435289  0.74769460    -0.05800
Br3438     Br  0.76386540  0.79168828  0.72128889    -0.00200
Br3439     Br  0.83457473  0.74393359  0.77726542     0.00300
Br3440     Br  0.67024743  0.75830975  0.75399735    -0.04100
Br3441     Br  0.70818666  0.70439804  0.72379685     0.00400
Br3442     Br  0.77124917  0.79327066  0.74554388    -0.03400
Br3443     Br  0.83071087  0.74109973  0.75298476    -0.04300
Br3444     Br  0.67147715  0.75793140  0.77800783    -0.00300
C3445       C  0.22582604  0.74120534  0.72497240     0.01100
C3446       C  0.23445040  0.72251572  0.73051347     0.03900
C3447       C  0.23963479  0.72382331  0.74066075    -0.12100
C3448       C  0.23264913  0.74318454  0.74557912     0.23200
C3449       C  0.21832694  0.76090776  0.74035774    -0.12700
C3450       C  0.21569311  0.76019114  0.73006805     0.04600
C3451       C  0.24130033  0.74490457  0.75619131     0.27100
C3452       C  0.21635832  0.73610139  0.76313727    -0.13400
C3453       C  0.22511370  0.73737126  0.77313307     0.05100
C3454       C  0.25795062  0.74828083  0.77630223    -0.09400
C3455       C  0.28343193  0.75652996  0.76936697     0.06000
C3456       C  0.27548954  0.75447920  0.75932348    -0.13700
Br3457     Br  0.20309602  0.78629271  0.74739804    -0.05800
Br3458     Br  0.23779286  0.69451881  0.72451805    -0.00200
Br3459     Br  0.19208164  0.72401579  0.78253839     0.00300
Br3460     Br  0.31139421  0.76473331  0.74981323    -0.04100
Br3461     Br  0.19982626  0.78571975  0.72321802     0.00400
Br3462     Br  0.25817371  0.69925504  0.74783666    -0.03400
Br3463     Br  0.16979010  0.72270475  0.75894936    -0.04300
Br3464     Br  0.32846886  0.77118185  0.77366233    -0.00300
C3465       C  0.60974867  0.75109716  0.68775480     0.01100
C3466       C  0.59156353  0.75594522  0.69673491     0.03900
C3467       C  0.55162937  0.75639720  0.69730720    -0.12100
C3468       C  0.52947120  0.75071398  0.68917559     0.23200
C3469       C  0.54722834  0.74418157  0.68050332    -0.12700
C3470       C  0.58700544  0.74422604  0.67977897     0.04600
C3471       C  0.48742658  0.75005973  0.68988309     0.27100
C3472       C  0.46951052  0.73173315  0.69373984    -0.13400
C3473       C  0.42977804  0.73041424  0.69392334     0.05100
C3474       C  0.40757031  0.74742631  0.69020333    -0.09400
C3475       C  0.42548992  0.76575961  0.68631145     0.06000
C3476       C  0.46535658  0.76718483  0.68628259    -0.13700
Br3477     Br  0.51655152  0.73487023  0.66961379    -0.05800
Br3478     Br  0.61999260  0.76106048  0.70851056    -0.00200
Br3479     Br  0.40596437  0.70480870  0.69902502     0.00300
Br3480     Br  0.48996791  0.79283651  0.68161738    -0.04100
Br3481     Br  0.60961343  0.73275127  0.66803032     0.00400
Br3482     Br  0.52674119  0.76503619  0.70921891    -0.03400
Br3483     Br  0.49961970  0.70843223  0.69883466    -0.04300
Br3484     Br  0.39551832  0.78926661  0.68139700    -0.00300
C3485       C  0.11065509  0.74896956  0.68627871     0.01100
C3486       C  0.09008683  0.76345019  0.69211659     0.03900
C3487       C  0.05032656  0.76261902  0.69217524    -0.12100
C3488       C  0.03119421  0.74749825  0.68630814     0.23200
C3489       C  0.05191436  0.73269766  0.68065209    -0.12700
C3490       C  0.09163898  0.73342615  0.68065420     0.04600
C3491       C  0.98929760  0.74663200  0.68637933     0.27100
C3492       C  0.97091219  0.73119487  0.69214081    -0.13400
C3493       C  0.93123478  0.73010352  0.69223060     0.05100
C3494       C  0.90941503  0.74563641  0.68716216    -0.09400
C3495       C  0.92804724  0.76106331  0.68131166     0.06000
C3496       C  0.96794011  0.76123406  0.68078376    -0.13700
Br3497     Br  0.02585989  0.71140498  0.67292863    -0.05800
Br3498     Br  0.11628834  0.78499247  0.69968971    -0.00200
Br3499     Br  0.90741333  0.70635664  0.69895360     0.00300
Br3500     Br  0.99373160  0.78173589  0.67257962    -0.04100
Br3501     Br  0.12027542  0.71286644  0.67311524     0.00400
Br3502     Br  0.02195813  0.78206697  0.70032601    -0.03400
Br3503     Br  0.00038060  0.71198047  0.70019778    -0.04300
Br3504     Br  0.89964033  0.78276333  0.67445214    -0.00300
C3505       C  0.79140274  0.75254871  0.65025360     0.01100
C3506       C  0.80541882  0.77055921  0.64516749     0.03900
C3507       C  0.81448005  0.76892849  0.63519408    -0.12100
C3508       C  0.81015699  0.74919585  0.63027092     0.23200
C3509       C  0.79722662  0.73102056  0.63540759    -0.12700
C3510       C  0.78746251  0.73273111  0.64533965     0.04600
C3511       C  0.81811399  0.74779647  0.61962842     0.27100
C3512       C  0.78820566  0.74935324  0.61285573    -0.13400
C3513       C  0.79575666  0.74908863  0.60276449     0.05100
C3514       C  0.83341181  0.74758678  0.59937700    -0.09400
C3515       C  0.86319701  0.74521033  0.60618826     0.06000
C3516       C  0.85553590  0.74531000  0.61627068    -0.13700
Br3517     Br  0.79245369  0.70386019  0.62874399    -0.05800
Br3518     Br  0.81335546  0.79734622  0.65190630    -0.00200
Br3519     Br  0.75441808  0.75164854  0.59366899     0.00300
Br3520     Br  0.89621249  0.74199784  0.62554843    -0.04100
Br3521     Br  0.76627537  0.70822150  0.65201995     0.00400
Br3522     Br  0.83228432  0.79383422  0.62819036    -0.03400
Br3523     Br  0.73684577  0.75230403  0.61746874    -0.04300
Br3524     Br  0.91446600  0.74071331  0.60173508    -0.00300
C3525       C  0.50670016  0.74177751  0.56600685     0.01100
C3526       C  0.52672560  0.75285982  0.55864700     0.03900
C3527       C  0.56660219  0.75244125  0.55849478    -0.12100
C3528       C  0.58677332  0.74125018  0.56575740     0.23200
C3529       C  0.56692593  0.73018258  0.57310681    -0.12700
C3530       C  0.52704126  0.73031810  0.57321129     0.04600
C3531       C  0.62884630  0.74039428  0.56540233     0.27100
C3532       C  0.64679984  0.72263498  0.56106619    -0.13400
C3533       C  0.68647580  0.72206174  0.56027940     0.05100
C3534       C  0.70858839  0.73956414  0.56360518    -0.09400
C3535       C  0.69058719  0.75722197  0.56810419     0.06000
C3536       C  0.65081415  0.75749245  0.56909682    -0.13700
Br3537     Br  0.59468608  0.71491943  0.58305199    -0.05800
Br3538     Br  0.49990228  0.76986672  0.54911092    -0.00200
Br3539     Br  0.71029845  0.69692762  0.55472848     0.00300
Br3540     Br  0.62606466  0.78150458  0.57528287    -0.04100
Br3541     Br  0.50047493  0.71418974  0.58310554     0.00400
Br3542     Br  0.59387600  0.76734519  0.54835691    -0.03400
Br3543     Br  0.61669050  0.69931431  0.55593436    -0.04300
Br3544     Br  0.71981598  0.78181723  0.57218841    -0.00300
C3545       C  0.00695534  0.74905345  0.56037182     0.01100
C3546       C  0.02965453  0.76517935  0.56472202     0.03900
C3547       C  0.06928364  0.76382310  0.56430297    -0.12100
C3548       C  0.08666609  0.74646815  0.55951103     0.23200
C3549       C  0.06423397  0.73095143  0.55471984    -0.12700
C3550       C  0.02436825  0.73234899  0.55505531     0.04600
C3551       C  0.12862563  0.74482783  0.55960866     0.27100
C3552       C  0.14983815  0.75371100  0.55193445    -0.13400
C3553       C  0.18965168  0.75368349  0.55235636     0.05100
C3554       C  0.20869180  0.74471221  0.56049176    -0.09400
C3555       C  0.18714772  0.73717545  0.56848250     0.06000
C3556       C  0.14730245  0.73656158  0.56787429    -0.13700
Br3557     Br  0.08828896  0.70738145  0.54804493    -0.05800
Br3558     Br  0.00680550  0.78961397  0.57114287    -0.00200
Br3559     Br  0.21780793  0.76770805  0.54208527     0.00300
Br3560     Br  0.11790230  0.72415775  0.57831667    -0.04100
Br3561     Br  0.99392229  0.71079293  0.54865783     0.00400
Br3562     Br  0.10010081  0.78557192  0.57049488    -0.03400
Br3563     Br  0.12399988  0.76619528  0.54089797    -0.04300
Br3564     Br  0.21135066  0.72832410  0.58042317    -0.00300
C3565       C  0.31870887  0.74831510  0.59964403     0.01100
C3566       C  0.30629056  0.76680161  0.60464861     0.03900
C3567       C  0.29985197  0.76609101  0.61478238    -0.12100
C3568       C  0.30622210  0.74696957  0.62002797     0.23200
C3569       C  0.31695006  0.72820337  0.61497832    -0.12700
C3570       C  0.32301154  0.72882301  0.60480522     0.04600
C3571       C  0.30118037  0.74669314  0.63083220     0.27100
C3572       C  0.33183369  0.75155671  0.63707434    -0.13400
C3573       C  0.32638246  0.75259159  0.64727129     0.05100
C3574       C  0.29001067  0.74930799  0.65124602    -0.09400
C3575       C  0.25970635  0.74371974  0.64500705     0.06000
C3576       C  0.26528925  0.74240784  0.63485419    -0.13700
Br3577     Br  0.32373213  0.70175986  0.62207987    -0.05800
Br3578     Br  0.29709612  0.79301681  0.59754518    -0.00200
Br3579     Br  0.36831201  0.75935442  0.65574486     0.00300
Br3580     Br  0.22355236  0.73528782  0.62636104    -0.04100
Br3581     Br  0.33913858  0.70318676  0.59806421     0.00400
Br3582     Br  0.28220701  0.79134072  0.62153726    -0.03400
Br3583     Br  0.38091654  0.75762932  0.63156997    -0.04300
Br3584     Br  0.21051589  0.73725006  0.65040954    -0.00300
C3585       C  0.61591956  0.99618107  0.72324973     0.01100
C3586       C  0.58064039  0.99562240  0.72813474     0.03900
C3587       C  0.57922192  0.99555507  0.73835807    -0.12100
C3588       C  0.61293978  0.99502529  0.74378389     0.23200
C3589       C  0.64816882  0.99403711  0.73895638    -0.12700
C3590       C  0.64972514  0.99487686  0.72868525     0.04600
C3591       C  0.61095995  0.99531099  0.75457927     0.27100
C3592       C  0.61004776  0.01500194  0.75963635    -0.13400
C3593       C  0.60827889  0.01526298  0.76990223     0.05100
C3594       C  0.60732558  0.99568752  0.77513725    -0.09400
C3595       C  0.60550626  0.97606170  0.76995279     0.06000
C3596       C  0.60799072  0.97588848  0.75973182    -0.13700
Br3597     Br  0.69412798  0.99190408  0.74647771    -0.05800
Br3598     Br  0.53383073  0.99396222  0.72089025    -0.00200
Br3599     Br  0.60940531  0.04252054  0.77662652     0.00300
Br3600     Br  0.60817069  0.94899423  0.75272412    -0.04100
Br3601     Br  0.69803349  0.99545405  0.72214446     0.00400
Br3602     Br  0.53103194  0.99660327  0.74501147    -0.03400
Br3603     Br  0.61232139  0.04157448  0.75241677    -0.04300
Br3604     Br  0.59830302  0.94924836  0.77677440    -0.00300
C3605       C  0.65225453  0.92830544  0.68656430     0.01100
C3606       C  0.63974385  0.91188860  0.68023813     0.03900
C3607       C  0.65434631  0.89095831  0.68112288    -0.12100
C3608       C  0.68182627  0.88630397  0.68827117     0.23200
C3609       C  0.69357883  0.90245437  0.69479068    -0.12700
C3610       C  0.67864233  0.92336235  0.69400849     0.04600
C3611       C  0.69761193  0.86423099  0.68894635     0.27100
C3612       C  0.68198564  0.84947948  0.69557730    -0.13400
C3613       C  0.69236271  0.82767746  0.69515163     0.05100
C3614       C  0.71794266  0.82037577  0.68792440    -0.09400
C3615       C  0.73625130  0.83564877  0.68193207     0.06000
C3616       C  0.72615177  0.85750672  0.68245947    -0.13700
Br3617     Br  0.73125148  0.89597881  0.70455428    -0.05800
Br3618     Br  0.60212831  0.91799824  0.67041012    -0.00200
Br3619     Br  0.66911230  0.80805121  0.70415078     0.00300
Br3620     Br  0.75041987  0.87828004  0.67410296    -0.04100
Br3621     Br  0.69668615  0.94537778  0.70277320     0.00400
Br3622     Br  0.63710910  0.86857159  0.67244313    -0.03400
Br3623     Br  0.64460744  0.85908730  0.70489051    -0.04300
Br3624     Br  0.77572867  0.82675922  0.67311509    -0.00300
C3625       C  0.13401178  0.99925572  0.72426004     0.01100
C3626       C  0.14353745  0.01856443  0.72901774     0.03900
C3627       C  0.14228328  0.01988289  0.73925342    -0.12100
C3628       C  0.13418129  0.00140845  0.74482451     0.23200
C3629       C  0.12841529  0.98154652  0.74006907    -0.12700
C3630       C  0.12731491  0.98059502  0.72980567     0.04600
C3631       C  0.13100542  0.00281549  0.75563695     0.27100
C3632       C  0.16387928  0.00461395  0.76139286    -0.13400
C3633       C  0.16108238  0.00426959  0.77161294     0.05100
C3634       C  0.12557702  0.00149787  0.77618134    -0.09400
C3635       C  0.09245644  0.00099139  0.77046421     0.06000
C3636       C  0.09515774  0.00172403  0.76020244    -0.13700
Br3637     Br  0.12009594  0.95585842  0.74764522    -0.05800
Br3638     Br  0.15712665  0.04337763  0.72137945    -0.00200
Br3639     Br  0.20611087  0.00826875  0.77936974     0.00300
Br3640     Br  0.04983270  0.00070940  0.75235582    -0.04100
Br3641     Br  0.11304151  0.95425754  0.72336672     0.00400
Br3642     Br  0.14860984  0.04735621  0.74556276    -0.03400
Br3643     Br  0.21302354  0.00677349  0.75528973    -0.04300
Br3644     Br  0.04368445  0.99827347  0.77664173    -0.00300
C3645       C  0.94982774  0.99684517  0.68762648     0.01100
C3646       C  0.93089717  0.00196199  0.67885269     0.03900
C3647       C  0.89099745  0.00238110  0.67859192    -0.12100
C3648       C  0.86982188  0.99615436  0.68684407     0.23200
C3649       C  0.88868957  0.98968010  0.69538923    -0.12700
C3650       C  0.92844702  0.99043160  0.69586230     0.04600
C3651       C  0.82773080  0.99555661  0.68644869     0.27100
C3652       C  0.80604555  0.01151521  0.69116740    -0.13400
C3653       C  0.76612646  0.01060821  0.69092992     0.05100
C3654       C  0.74776785  0.99402326  0.68574613    -0.09400
C3655       C  0.76964536  0.97782929  0.68119520     0.06000
C3656       C  0.80939129  0.97858228  0.68157509    -0.13700
Br3657     Br  0.85983647  0.97952896  0.70643559    -0.05800
Br3658     Br  0.95903618  0.00859822  0.66716624    -0.00200
Br3659     Br  0.73683557  0.03255078  0.69737118     0.00300
Br3660     Br  0.83889763  0.95623577  0.67542545    -0.04100
Br3661     Br  0.95339129  0.98157977  0.70775325     0.00400
Br3662     Br  0.86514406  0.01210832  0.66701258    -0.03400
Br3663     Br  0.83125956  0.03492930  0.69772546    -0.04300
Br3664     Br  0.74540261  0.95393334  0.67468775    -0.00300
C3665       C  0.24706289  0.00221487  0.68577560     0.01100
C3666       C  0.26707256  0.01300755  0.67827818     0.03900
C3667       C  0.30688854  0.01358458  0.67836038    -0.12100
C3668       C  0.32700185  0.00465076  0.68621865     0.23200
C3669       C  0.30718364  0.99538227  0.69407578    -0.12700
C3670       C  0.26741964  0.99357431  0.69374937     0.04600
C3671       C  0.36906601  0.00471049  0.68614858     0.27100
C3672       C  0.38905687  0.98630538  0.68309258    -0.13400
C3673       C  0.42895378  0.98605508  0.68334484     0.05100
C3674       C  0.44900209  0.00427634  0.68663549    -0.09400
C3675       C  0.42883601  0.02294233  0.68939492     0.06000
C3676       C  0.38902755  0.02311201  0.68916851    -0.13700
Br3677     Br  0.33490610  0.98489310  0.70522392    -0.05800
Br3678     Br  0.24029236  0.02783090  0.66799950    -0.00200
Br3679     Br  0.45576659  0.96023708  0.67983597     0.00300
Br3680     Br  0.36159010  0.04844228  0.69315322    -0.04100
Br3681     Br  0.24181487  0.97766348  0.70388237     0.00400
Br3682     Br  0.33420666  0.02611367  0.66757175    -0.03400
Br3683     Br  0.36146273  0.96129396  0.67875839    -0.04300
Br3684     Br  0.45560483  0.04857645  0.69338462    -0.00300
C3685       C  0.15538743  0.92904141  0.68746755     0.01100
C3686       C  0.13087216  0.91558364  0.69284844     0.03900
C3687       C  0.13990600  0.89364266  0.69420053    -0.12100
C3688       C  0.17310142  0.88490845  0.69002952     0.23200
C3689       C  0.19795339  0.89847906  0.68486642    -0.12700
C3690       C  0.18948131  0.92041947  0.68371054     0.04600
C3691       C  0.18051928  0.86124154  0.69018265     0.27100
C3692       C  0.20905540  0.85240927  0.69618710    -0.13400
C3693       C  0.22007852  0.83066576  0.69510022     0.05100
C3694       C  0.20190271  0.81743529  0.68814206    -0.09400
C3695       C  0.17124076  0.82603266  0.68269794     0.06000
C3696       C  0.16133209  0.84784170  0.68355022    -0.13700
Br3697     Br  0.24315417  0.88674969  0.67898807    -0.05800
Br3698     Br  0.08367273  0.92671660  0.69776742    -0.00200
Br3699     Br  0.26157548  0.81960202  0.70271152     0.00300
Br3700     Br  0.12233216  0.85967185  0.67524456    -0.04100
Br3701     Br  0.22557195  0.93870976  0.67711201     0.00400
Br3702     Br  0.10633622  0.87528278  0.70151616    -0.03400
Br3703     Br  0.23367580  0.87047031  0.70569573    -0.04300
Br3704     Br  0.14108497  0.80797053  0.67422666    -0.00300
C3705       C  0.44848866  0.92246620  0.56059244     0.01100
C3706       C  0.46997916  0.90985002  0.55400442     0.03900
C3707       C  0.46095172  0.88793929  0.55258608    -0.12100
C3708       C  0.43102753  0.87842387  0.55783967     0.23200
C3709       C  0.40782518  0.89131226  0.56377718    -0.12700
C3710       C  0.41592683  0.91327533  0.56498157     0.04600
C3711       C  0.42674638  0.85463232  0.55828008     0.27100
C3712       C  0.39727226  0.84406797  0.55325253    -0.13400
C3713       C  0.38858278  0.82243695  0.55540807     0.05100
C3714       C  0.41077724  0.81095421  0.56222402    -0.09400
C3715       C  0.44273032  0.82103493  0.56643663     0.06000
C3716       C  0.44994247  0.84289864  0.56470380    -0.13700
Br3717     Br  0.36577069  0.87852378  0.57068298    -0.05800
Br3718     Br  0.51303820  0.92186350  0.54727909    -0.00200
Br3719     Br  0.34471860  0.80927281  0.54953056     0.00300
Br3720     Br  0.49104555  0.85705730  0.57143145    -0.04100
Br3721     Br  0.38079585  0.93074362  0.57233889     0.00400
Br3722     Br  0.49024330  0.87051540  0.54373671    -0.03400
Br3723     Br  0.36874076  0.85944610  0.54352159    -0.04300
Br3724     Br  0.47813799  0.80476338  0.57423276    -0.00300
C3725       C  0.53434711  0.98544453  0.59861039     0.01100
C3726       C  0.52801578  0.00491002  0.60363570     0.03900
C3727       C  0.53205824  0.00577200  0.61383713    -0.12100
C3728       C  0.54469740  0.98759527  0.61899697     0.23200
C3729       C  0.55187022  0.96827500  0.61397037    -0.12700
C3730       C  0.54555813  0.96699726  0.60384828     0.04600
C3731       C  0.55174099  0.98900744  0.62965518     0.27100
C3732       C  0.58555405  0.99836446  0.63309365    -0.13400
C3733       C  0.59270948  0.99945186  0.64316110     0.05100
C3734       C  0.56689761  0.99040370  0.64981536    -0.09400
C3735       C  0.53316065  0.98095728  0.64640568     0.06000
C3736       C  0.52511011  0.98076114  0.63634470    -0.13700
Br3737     Br  0.57108489  0.94371047  0.62096974    -0.05800
Br3738     Br  0.51211151  0.03024861  0.59663937    -0.00200
Br3739     Br  0.63775750  0.01359208  0.64790848     0.00300
Br3740     Br  0.47759734  0.96940180  0.63169257    -0.04100
Br3741     Br  0.55304127  0.94003128  0.59717421     0.00400
Br3742     Br  0.51928674  0.03165224  0.62084379    -0.03400
Br3743     Br  0.62242452  0.00930447  0.62398023    -0.04300
Br3744     Br  0.49900323  0.96744510  0.65545875    -0.00300
C3745       C  0.86056185  0.98812717  0.56281614     0.01100
C3746       C  0.84016829  0.00002890  0.56988308     0.03900
C3747       C  0.80034513  0.00009828  0.56980728    -0.12100
C3748       C  0.78046439  0.98856830  0.56262501     0.23200
C3749       C  0.80048932  0.97733468  0.55536387    -0.12700
C3750       C  0.84039414  0.97720780  0.55540984     0.04600
C3751       C  0.73844731  0.98932133  0.56240988     0.27100
C3752       C  0.71678373  0.97488997  0.56803606    -0.13400
C3753       C  0.67682954  0.97578233  0.56780044     0.05100
C3754       C  0.65846720  0.99110944  0.56186146    -0.09400
C3755       C  0.68059065  0.00626182  0.55663420     0.06000
C3756       C  0.72028551  0.00505132  0.55676453    -0.13700
Br3757     Br  0.77287427  0.96186739  0.54543691    -0.05800
Br3758     Br  0.86647432  0.01731595  0.57945225    -0.00200
Br3759     Br  0.64776910  0.95558928  0.57538503     0.00300
Br3760     Br  0.75012459  0.02483309  0.54908661    -0.04100
Br3761     Br  0.86662032  0.96142874  0.54545770     0.00400
Br3762     Br  0.77266749  0.01604460  0.57954939    -0.03400
Br3763     Br  0.74223727  0.95360104  0.57585701    -0.04300
Br3764     Br  0.65704542  0.02972482  0.54965374    -0.00300
C3765       C  0.35960232  0.99633209  0.56162585     0.01100
C3766       C  0.33776884  0.98379949  0.55515375     0.03900
C3767       C  0.29822444  0.98654936  0.55474751    -0.12100
C3768       C  0.28022018  0.00121897  0.56105686     0.23200
C3769       C  0.30215104  0.01442137  0.56720371    -0.12700
C3770       C  0.34179405  0.01217641  0.56739222     0.04600
C3771       C  0.23820260  0.00229744  0.56138075     0.27100
C3772       C  0.21890643  0.01858914  0.55631802    -0.13400
C3773       C  0.17913181  0.01940319  0.55653767     0.05100
C3774       C  0.15821363  0.00287862  0.56116278    -0.09400
C3775       C  0.17764010  0.98650538  0.56621132     0.06000
C3776       C  0.21751738  0.98664257  0.56657083    -0.13700
Br3777     Br  0.27771661  0.03529441  0.57548768    -0.05800
Br3778     Br  0.36147533  0.96178471  0.54735849    -0.00200
Br3779     Br  0.15361954  0.04373969  0.55075747     0.00300
Br3780     Br  0.24407612  0.96507475  0.57399124    -0.04100
Br3781     Br  0.37184818  0.03113818  0.57542013     0.00400
Br3782     Br  0.26840969  0.97016419  0.54559399    -0.03400
Br3783     Br  0.24707048  0.03922518  0.54871871    -0.04300
Br3784     Br  0.15019060  0.96282241  0.57190150    -0.00300
C3785       C  0.90816557  0.81384828  0.56178202     0.01100
C3786       C  0.89218647  0.82989424  0.56774161     0.03900
C3787       C  0.90564032  0.85113530  0.56719479    -0.12100
C3788       C  0.93569747  0.85629135  0.56084285     0.23200
C3789       C  0.95100156  0.84041366  0.55470001    -0.12700
C3790       C  0.93670633  0.81935342  0.55499851     0.04600
C3791       C  0.95130027  0.87840748  0.56066266     0.27100
C3792       C  0.94118547  0.89257469  0.55312122    -0.13400
C3793       C  0.95489491  0.91378673  0.55314368     0.05100
C3794       C  0.97473986  0.92171345  0.56136929    -0.09400
C3795       C  0.98753475  0.90693475  0.56848900     0.06000
C3796       C  0.97652864  0.88523004  0.56798447    -0.13700
Br3797     Br  0.99315880  0.84732667  0.54629507    -0.05800
Br3798     Br  0.85167876  0.82270255  0.57660467    -0.00200
Br3799     Br  0.94718409  0.93112793  0.54168963     0.00300
Br3800     Br  0.99529284  0.86479831  0.57739354    -0.04100
Br3801     Br  0.95839515  0.79791750  0.54651350     0.00400
Br3802     Br  0.88358967  0.87312872  0.57530925    -0.03400
Br3803     Br  0.90667016  0.88319494  0.54305305    -0.04300
Br3804     Br  0.02128099  0.91612216  0.57877053    -0.00300
C3805       C  0.06354325  0.99055016  0.65055418     0.01100
C3806       C  0.05080713  0.97197340  0.64566362     0.03900
C3807       C  0.04474092  0.97239029  0.63550374    -0.12100
C3808       C  0.05023333  0.99158371  0.63021734     0.23200
C3809       C  0.06138620  0.01039121  0.63518862    -0.12700
C3810       C  0.06870875  0.00978447  0.64528611     0.04600
C3811       C  0.04542876  0.99186609  0.61940876     0.27100
C3812       C  0.07744311  0.99116019  0.61324879    -0.13400
C3813       C  0.07297217  0.99114597  0.60302011     0.05100
C3814       C  0.03639738  0.99156591  0.59889147    -0.09400
C3815       C  0.00448095  0.99302499  0.60507027     0.06000
C3816       C  0.00895616  0.99300460  0.61527510    -0.13700
Br3817     Br  0.06751675  0.03688676  0.62807453    -0.05800
Br3818     Br  0.04119929  0.94602620  0.65293881    -0.00200
Br3819     Br  0.11691865  0.98977268  0.59472733     0.00300
Br3820     Br  0.96504521  0.99438158  0.62362418    -0.04100
Br3821     Br  0.08886681  0.03487728  0.65173997     0.00400
Br3822     Br  0.03025741  0.94646588  0.62875312    -0.03400
Br3823     Br  0.12744412  0.98959802  0.61888367    -0.04300
Br3824     Br  0.95446344  0.99614129  0.59953540    -0.00300
C3825       C  0.57765027  0.17186116  0.56144323     0.01100
C3826       C  0.60244025  0.15827619  0.55625100     0.03900
C3827       C  0.59887702  0.13582158  0.55701757    -0.12100
C3828       C  0.57049252  0.12680193  0.56296755     0.23200
C3829       C  0.54693649  0.14033189  0.56853899    -0.12700
C3830       C  0.55086310  0.16282327  0.56790269     0.04600
C3831       C  0.56379563  0.10320562  0.56277750     0.27100
C3832       C  0.53859407  0.09449282  0.55586215    -0.13400
C3833       C  0.53324913  0.07213781  0.55528307     0.05100
C3834       C  0.55413591  0.05824316  0.56138163    -0.09400
C3835       C  0.57951949  0.06696506  0.56828364     0.06000
C3836       C  0.58367875  0.08942789  0.56912135    -0.13700
Br3837     Br  0.50807694  0.12793734  0.57665965    -0.05800
Br3838     Br  0.64203134  0.17047865  0.54828074    -0.00200
Br3839     Br  0.49685174  0.06060279  0.54616571     0.00300
Br3840     Br  0.61729397  0.10143636  0.57876717    -0.04100
Br3841     Br  0.51829957  0.18112648  0.57556996     0.00400
Br3842     Br  0.63191375  0.11729276  0.54962490    -0.03400
Br3843     Br  0.51236485  0.11328771  0.54694269    -0.04300
Br3844     Br  0.61108425  0.04818383  0.57596688    -0.00300
C3845       C  0.04214454  0.06443453  0.56245410     0.01100
C3846       C  0.06470081  0.07281661  0.57008395     0.03900
C3847       C  0.06859467  0.09517255  0.57119267    -0.12100
C3848       C  0.05044841  0.10916299  0.56464360     0.23200
C3849       C  0.02589187  0.10090636  0.55747170    -0.12700
C3850       C  0.02186699  0.07858601  0.55633202     0.04600
C3851       C  0.05987975  0.13234657  0.56463068     0.27100
C3852       C  0.03676440  0.14717600  0.56957828    -0.13400
C3853       C  0.04359070  0.16934569  0.56861140     0.05100
C3854       C  0.07330266  0.17665722  0.56256934    -0.09400
C3855       C  0.09794428  0.16173433  0.55817813     0.06000
C3856       C  0.09126012  0.13960932  0.55920799    -0.13700
Br3857     Br  0.99852875  0.12031677  0.54906252    -0.05800
Br3858     Br  0.09333482  0.05394690  0.57847930    -0.00200
Br3859     Br  0.01103504  0.18956935  0.57520384     0.00300
Br3860     Br  0.12456185  0.11916013  0.55301015    -0.04100
Br3861     Br  0.98864872  0.06751919  0.54632136     0.00400
Br3862     Br  0.09986604  0.10683040  0.58144643    -0.03400
Br3863     Br  0.99515237  0.13697506  0.57741259    -0.04300
Br3864     Br  0.14148104  0.17164510  0.55097870    -0.00300
C3865       C  0.76658993  0.23640527  0.55970979     0.01100
C3866       C  0.78515563  0.24751606  0.55205659     0.03900
C3867       C  0.82503938  0.24835471  0.55178781    -0.12100
C3868       C  0.84653181  0.23840082  0.55915541     0.23200
C3869       C  0.82830422  0.22623046  0.56640069    -0.12700
C3870       C  0.78861772  0.22465772  0.56650107     0.04600
C3871       C  0.88849512  0.23958672  0.55895941     0.27100
C3872       C  0.90920920  0.22233847  0.55505791    -0.13400
C3873       C  0.94892711  0.22303028  0.55496489     0.05100
C3874       C  0.96831208  0.24133649  0.55852839    -0.09400
C3875       C  0.94751486  0.25879371  0.56228827     0.06000
C3876       C  0.90764194  0.25775534  0.56265380    -0.13700
Br3877     Br  0.85793200  0.21204675  0.57633238    -0.05800
Br3878     Br  0.75697425  0.26264144  0.54213950    -0.00200
Br3879     Br  0.97638822  0.19838813  0.55011688     0.00300
Br3880     Br  0.87906203  0.28116119  0.56818290    -0.04100
Br3881     Br  0.76484429  0.20540301  0.57572001     0.00400
Br3882     Br  0.85064945  0.26346272  0.54141502    -0.03400
Br3883     Br  0.88285801  0.19777493  0.54973060    -0.04300
Br3884     Br  0.97337264  0.28463874  0.56628143    -0.00300
C3885       C  0.46765898  0.23837787  0.56251086     0.01100
C3886       C  0.45069765  0.25574561  0.56749962     0.03900
C3887       C  0.41096071  0.25669642  0.56848142    -0.12100
C3888       C  0.38787410  0.24110209  0.56396952     0.23200
C3889       C  0.40464950  0.22396898  0.55887527    -0.12700
C3890       C  0.44428863  0.22215190  0.55844212     0.04600
C3891       C  0.34588578  0.24272544  0.56444679     0.27100
C3892       C  0.32547142  0.23011605  0.57116022    -0.13400
C3893       C  0.28561971  0.23083098  0.57129535     0.05100
C3894       C  0.26594955  0.24486148  0.56499174    -0.09400
C3895       C  0.28649083  0.25761806  0.55831480     0.06000
C3896       C  0.32628906  0.25623186  0.55792905    -0.13700
Br3897     Br  0.37303903  0.20334037  0.55219030    -0.05800
Br3898     Br  0.48118867  0.27926945  0.57223271    -0.00200
Br3899     Br  0.25798222  0.21170086  0.57977629     0.00300
Br3900     Br  0.35418471  0.27271392  0.54842533    -0.04100
Br3901     Br  0.46605515  0.19683857  0.55248376     0.00400
Br3902     Br  0.38783277  0.27952165  0.57588447    -0.03400
Br3903     Br  0.35237190  0.21196912  0.58021515    -0.04300
Br3904     Br  0.26048531  0.27788015  0.55003143    -0.00300
C3905       C  0.48281927  0.25096473  0.72328612     0.01100
C3906       C  0.48338092  0.27086132  0.72826809     0.03900
C3907       C  0.48407926  0.27132676  0.73855911    -0.12100
C3908       C  0.48600878  0.25200594  0.74388256     0.23200
C3909       C  0.48290473  0.23226336  0.73897273    -0.12700
C3910       C  0.47926427  0.23185257  0.72877722     0.04600
C3911       C  0.49184291  0.25238679  0.75461257     0.27100
C3912       C  0.52840253  0.25580880  0.75849684    -0.13400
C3913       C  0.53383233  0.25659250  0.76867054     0.05100
C3914       C  0.50277785  0.25385390  0.77496180    -0.09400
C3915       C  0.46659380  0.24937956  0.77108018     0.06000
C3916       C  0.46102329  0.24895215  0.76093497    -0.13700
Br3917     Br  0.48631183  0.20567820  0.74615695    -0.05800
Br3918     Br  0.48555927  0.29750297  0.72120852    -0.00200
Br3919     Br  0.58339305  0.26206943  0.77402081     0.00300
Br3920     Br  0.41100145  0.24417056  0.75567492    -0.04100
Br3921     Br  0.46798541  0.20502868  0.72239239     0.00400
Br3922     Br  0.48405813  0.29836902  0.74544649    -0.03400
Br3923     Br  0.57088713  0.25970757  0.74984780    -0.04300
Br3924     Br  0.42473406  0.24312865  0.77967608    -0.00300
C3925       C  0.56525265  0.06742570  0.68574512     0.01100
C3926       C  0.54180005  0.07698738  0.67860241     0.03900
C3927       C  0.53814464  0.09954786  0.67821330    -0.12100
C3928       C  0.55863476  0.11261721  0.68474943     0.23200
C3929       C  0.58397349  0.10314499  0.69139866    -0.12700
C3930       C  0.58745237  0.08068271  0.69186775     0.04600
C3931       C  0.55400608  0.13637039  0.68473123     0.27100
C3932       C  0.57939307  0.14928620  0.67942976    -0.13400
C3933       C  0.57905378  0.17176757  0.68061429     0.05100
C3934       C  0.55244621  0.18159887  0.68689011    -0.09400
C3935       C  0.52505422  0.16864710  0.69156346     0.06000
C3936       C  0.52646287  0.14610283  0.69069814    -0.13700
Br3937     Br  0.61321689  0.12109531  0.70008031    -0.05800
Br3938     Br  0.51340951  0.05941615  0.66958404    -0.00200
Br3939     Br  0.61709190  0.18862622  0.67415542     0.00300
Br3940     Br  0.49170375  0.12839388  0.69799217    -0.04100
Br3941     Br  0.62378122  0.06815928  0.70073760     0.00400
Br3942     Br  0.50406424  0.11266176  0.66899254    -0.03400
Br3943     Br  0.61577038  0.13588425  0.67087268    -0.04300
Br3944     Br  0.48432192  0.18177706  0.69873839    -0.00300
C3945       C  0.55993059  0.24801957  0.64971467     0.01100
C3946       C  0.56202555  0.22738674  0.64546826     0.03900
C3947       C  0.57028560  0.22516946  0.63545392    -0.12100
C3948       C  0.57609057  0.24354724  0.62964528     0.23200
C3949       C  0.57575411  0.26405612  0.63398735    -0.12700
C3950       C  0.56803945  0.26627040  0.64399995     0.04600
C3951       C  0.58230539  0.24157614  0.61895026     0.27100
C3952       C  0.61932199  0.23985032  0.61525696    -0.13400
C3953       C  0.62569508  0.24034516  0.60512625     0.05100
C3954       C  0.59493105  0.24253729  0.59857750    -0.09400
C3955       C  0.55764461  0.24338834  0.60230180     0.06000
C3956       C  0.55143047  0.24294056  0.61246048    -0.13700
Br3957     Br  0.58487476  0.28918485  0.62610213    -0.05800
Br3958     Br  0.55092705  0.20224422  0.65316674    -0.00200
Br3959     Br  0.67683344  0.23735067  0.60030336     0.00300
Br3960     Br  0.50064722  0.24481332  0.61757717    -0.04100
Br3961     Br  0.56899978  0.29436137  0.64995031     0.00400
Br3962     Br  0.57253539  0.19706539  0.62957320    -0.03400
Br3963     Br  0.66132597  0.23714198  0.62417696    -0.04300
Br3964     Br  0.51503973  0.24655505  0.59362058    -0.00300
C3965       C  0.01038558  0.24571758  0.72323725     0.01100
C3966       C  0.97837311  0.25119671  0.72890343     0.03900
C3967       C  0.98166289  0.25308895  0.73911570    -0.12100
C3968       C  0.01685915  0.24976634  0.74370810     0.23200
C3969       C  0.04900850  0.24500765  0.73810470    -0.12700
C3970       C  0.04599285  0.24307058  0.72792520     0.04600
C3971       C  0.02017816  0.25113426  0.75447055     0.27100
C3972       C  0.02814243  0.27095437  0.75896159    -0.13400
C3973       C  0.02971066  0.27240380  0.76918970     0.05100
C3974       C  0.02349055  0.25396920  0.77497554    -0.09400
C3975       C  0.01761646  0.23387405  0.77042200     0.06000
C3976       C  0.01576754  0.23252649  0.76018787    -0.13700
Br3977     Br  0.09735622  0.24123504  0.74449966    -0.05800
Br3978     Br  0.92955743  0.25533572  0.72286541    -0.00200
Br3979     Br  0.04086184  0.29967650  0.77525178     0.00300
Br3980     Br  0.00576328  0.20533235  0.75393078    -0.04100
Br3981     Br  0.09188664  0.23805222  0.72060004     0.00400
Br3982     Br  0.93788632  0.25991354  0.74693189    -0.03400
Br3983     Br  0.03615792  0.29614788  0.75103789    -0.04300
Br3984     Br  0.00917591  0.20834382  0.77811533    -0.00300
C3985       C  0.05251962  0.17868089  0.68453998     0.01100
C3986       C  0.07287522  0.16833568  0.67701602     0.03900
C3987       C  0.07481871  0.14568093  0.67669504    -0.12100
C3988       C  0.05611496  0.13326021  0.68381339     0.23200
C3989       C  0.03388245  0.14351118  0.69094802    -0.12700
C3990       C  0.03181513  0.16604859  0.69126483     0.04600
C3991       C  0.06023298  0.10945198  0.68404426     0.27100
C3992       C  0.03074120  0.09625092  0.68058430    -0.13400
C3993       C  0.03204025  0.07389380  0.68210084     0.05100
C3994       C  0.06382848  0.06438252  0.68661486    -0.09400
C3995       C  0.09416085  0.07755934  0.68967196     0.06000
C3996       C  0.09201981  0.10004001  0.68856650    -0.13700
Br3997     Br  0.00727956  0.12657975  0.70056353    -0.05800
Br3998     Br  0.09957225  0.18492474  0.66740238    -0.00200
Br3999     Br  0.98820455  0.05682408  0.67899568     0.00300
Br4000     Br  0.13171304  0.11811989  0.69369925    -0.04100
Br4001     Br  0.99975923  0.17951333  0.70090860     0.00400
Br4002     Br  0.10411320  0.13150873  0.66672195    -0.03400
Br4003     Br  0.98767204  0.10906357  0.67416731    -0.04300
Br4004     Br  0.13879061  0.06482800  0.69535352    -0.00300
C4005       C  0.66820923  0.25040024  0.68862957     0.01100
C4006       C  0.68906093  0.25772064  0.69685325     0.03900
C4007       C  0.72890776  0.25750687  0.69675714    -0.12100
C4008       C  0.74846978  0.25051783  0.68842703     0.23200
C4009       C  0.72814403  0.24425975  0.68005943    -0.12700
C4010       C  0.68820555  0.24451271  0.68006865     0.04600
C4011       C  0.79050361  0.25151232  0.68822041     0.27100
C4012       C  0.80841555  0.26995720  0.68452010    -0.13400
C4013       C  0.84811390  0.27105655  0.68414173     0.05100
C4014       C  0.87037283  0.25367960  0.68753600    -0.09400
C4015       C  0.85236869  0.23560498  0.69167719     0.06000
C4016       C  0.81246182  0.23445394  0.69191689    -0.13700
Br4017     Br  0.75545697  0.23523136  0.66857456    -0.05800
Br4018     Br  0.66378113  0.27000057  0.70805558    -0.00200
Br4019     Br  0.87162687  0.29684095  0.67911727     0.00300
Br4020     Br  0.78756883  0.20934778  0.69707992    -0.04100
Br4021     Br  0.66200148  0.23704693  0.66818777     0.00400
Br4022     Br  0.75721641  0.26709757  0.70801190    -0.03400
Br4023     Br  0.77821795  0.29374173  0.67991346    -0.04300
Br4024     Br  0.88203704  0.21199351  0.69660458    -0.00300
C4025       C  0.16902680  0.25011258  0.68554394     0.01100
C4026       C  0.19004349  0.24184038  0.67762348     0.03900
C4027       C  0.22994830  0.24308122  0.67768848    -0.12100
C4028       C  0.24903147  0.25216982  0.68573347     0.23200
C4029       C  0.22815635  0.26078660  0.69352926    -0.12700
C4030       C  0.18843363  0.26063068  0.69323984     0.04600
C4031       C  0.29102498  0.25346162  0.68589021     0.27100
C4032       C  0.31287495  0.23520861  0.68818695    -0.13400
C4033       C  0.35270278  0.23640628  0.68801763     0.05100
C4034       C  0.37076895  0.25611672  0.68595593    -0.09400
C4035       C  0.34877337  0.27465677  0.68433699     0.06000
C4036       C  0.30908315  0.27323068  0.68403724    -0.13700
Br4037     Br  0.25418312  0.27209417  0.70482159    -0.05800
Br4038     Br  0.16495787  0.22821950  0.66680732    -0.00200
Br4039     Br  0.38230451  0.21077982  0.69012397     0.00300
Br4040     Br  0.27935917  0.29837160  0.68099498    -0.04100
Br4041     Br  0.16090147  0.27606853  0.70322262     0.00400
Br4042     Br  0.25876151  0.23186827  0.66686867    -0.03400
Br4043     Br  0.28809835  0.20863617  0.69161222    -0.04300
Br4044     Br  0.37286414  0.30229629  0.68311391    -0.00300
C4045       C  0.07079282  0.25201636  0.59781357     0.01100
C4046       C  0.05510661  0.27100711  0.60169089     0.03900
C4047       C  0.04512373  0.27205822  0.61162651    -0.12100
C4048       C  0.05132511  0.25422763  0.61774501     0.23200
C4049       C  0.06447496  0.23478375  0.61371704    -0.12700
C4050       C  0.07406750  0.23363865  0.60376186     0.04600
C4051       C  0.04636006  0.25617017  0.62848763     0.27100
C4052       C  0.07678304  0.26333273  0.63432610    -0.13400
C4053       C  0.07327570  0.26378279  0.64456372     0.05100
C4054       C  0.03936293  0.25704882  0.64900613    -0.09400
C4055       C  0.00836726  0.25078845  0.64313989     0.06000
C4056       C  0.01193251  0.25024276  0.63291021    -0.13700
Br4057     Br  0.07048378  0.20993979  0.62196913    -0.05800
Br4058     Br  0.04703247  0.29548669  0.59333094    -0.00200
Br4059     Br  0.11405325  0.27468829  0.65249730     0.00300
Br4060     Br  0.96977471  0.24144133  0.62489994    -0.04100
Br4061     Br  0.09410082  0.20728146  0.59845057     0.00400
Br4062     Br  0.02346514  0.29794913  0.61693254    -0.03400
Br4063     Br  0.12315722  0.27270536  0.62823641    -0.04300
Br4064     Br  0.96096491  0.24280506  0.64913790    -0.00300
C4065       C  0.88350132  0.50046556  0.72481796     0.01100
C4066       C  0.84751181  0.49769704  0.72913846     0.03900
C4067       C  0.84351860  0.49792209  0.73932164    -0.12100
C4068       C  0.87571063  0.49949151  0.74532602     0.23200
C4069       C  0.91200670  0.50110161  0.74104870    -0.12700
C4070       C  0.91583666  0.50196740  0.73080159     0.04600
C4071       C  0.87102135  0.49864148  0.75610832     0.27100
C4072       C  0.87251708  0.51758166  0.76173915    -0.13400
C4073       C  0.86813687  0.51661243  0.77195924     0.05100
C4074       C  0.86045461  0.49674524  0.77655570    -0.09400
C4075       C  0.85691344  0.47800948  0.77078501     0.06000
C4076       C  0.86319317  0.47887595  0.76066831    -0.13700
Br4077     Br  0.95630505  0.50221253  0.74925124    -0.05800
Br4078     Br  0.80348323  0.49239506  0.72115600    -0.00200
Br4079     Br  0.87611829  0.54226518  0.77960729     0.00300
Br4080     Br  0.86214688  0.45279880  0.75303459    -0.04100
Br4081     Br  0.96495764  0.50610361  0.72498252     0.00400
Br4082     Br  0.79365539  0.49650743  0.74508700    -0.03400
Br4083     Br  0.88114915  0.54481211  0.75540547    -0.04300
Br4084     Br  0.84291073  0.45096080  0.77668383    -0.00300
C4085       C  0.82907007  0.56860339  0.68673109     0.01100
C4086       C  0.80346918  0.57604222  0.67955741     0.03900
C4087       C  0.79669531  0.59824059  0.67850563    -0.12100
C4088       C  0.81537459  0.61303982  0.68461214     0.23200
C4089       C  0.84194804  0.60568981  0.69150427    -0.12700
C4090       C  0.84882955  0.58357459  0.69255526     0.04600
C4091       C  0.80649440  0.63633624  0.68418704     0.27100
C4092       C  0.82985077  0.65030619  0.67879318    -0.13400
C4093       C  0.82650397  0.67268600  0.67999206     0.05100
C4094       C  0.79923224  0.68111869  0.68646387    -0.09400
C4095       C  0.77390155  0.66717376  0.69124519     0.06000
C4096       C  0.77764906  0.64481003  0.69015578    -0.13700
Br4097     Br  0.86801975  0.62606698  0.69974831    -0.05800
Br4098     Br  0.77530348  0.55589059  0.67167631    -0.00200
Br4099     Br  0.86121785  0.69163114  0.67334227     0.00300
Br4100     Br  0.74432322  0.62569176  0.69714298    -0.04100
Br4101     Br  0.88557024  0.57383193  0.70198648     0.00400
Br4102     Br  0.76084835  0.60846805  0.66897548    -0.03400
Br4103     Br  0.86744135  0.63858405  0.67010046    -0.04300
Br4104     Br  0.73393920  0.67880709  0.69923746    -0.00300
C4105       C  0.97264979  0.31851068  0.68937372     0.01100
C4106       C  0.94296999  0.32343708  0.69592370     0.03900
C4107       C  0.93027953  0.34478114  0.69690606    -0.12100
C4108       C  0.94861130  0.36145091  0.69180768     0.23200
C4109       C  0.98094075  0.35678365  0.68615118    -0.12700
C4110       C  0.99238427  0.33532702  0.68474905     0.04600
C4111       C  0.93173126  0.38337996  0.69148350     0.27100
C4112       C  0.90931682  0.38932317  0.68344473    -0.13400
C4113       C  0.89622712  0.41058400  0.68250865     0.05100
C4114       C  0.90573438  0.42631335  0.68957649    -0.09400
C4115       C  0.92328521  0.41931438  0.69835026     0.06000
C4116       C  0.93765017  0.39819812  0.69908504    -0.13700
Br4117     Br  0.00850369  0.37984935  0.68002005    -0.05800
Br4118     Br  0.91773632  0.30090154  0.70308422    -0.00200
Br4119     Br  0.86296831  0.41749977  0.67182277     0.00300
Br4120     Br  0.96720866  0.38975315  0.71028095    -0.04100
Br4121     Br  0.03483285  0.32884557  0.67641222     0.00400
Br4122     Br  0.88599789  0.35102086  0.70464155    -0.03400
Br4123     Br  0.89750661  0.36825024  0.67354574    -0.04300
Br4124     Br  0.92664568  0.43766402  0.70965341    -0.00300
C4125       C  0.39929927  0.50293512  0.72327463     0.01100
C4126       C  0.40322060  0.52202209  0.72880072     0.03900
C4127       C  0.40094896  0.52146925  0.73904163    -0.12100
C4128       C  0.39439048  0.50190603  0.74387359     0.23200
C4129       C  0.39285849  0.48266384  0.73846159    -0.12700
C4130       C  0.39524865  0.48313250  0.72819101     0.04600
C4131       C  0.39047715  0.50149759  0.75468551     0.27100
C4132       C  0.42283843  0.49881338  0.76050432    -0.13400
C4133       C  0.41956878  0.49809759  0.77071838     0.05100
C4134       C  0.38356413  0.49954925  0.77526241    -0.09400
C4135       C  0.35114272  0.50280418  0.76939762     0.06000
C4136       C  0.35471150  0.50394183  0.75914127    -0.13700
Br4137     Br  0.38692019  0.45569654  0.74519547    -0.05800
Br4138     Br  0.41206399  0.54913690  0.72242394    -0.00200
Br4139     Br  0.46535999  0.49628147  0.77836522     0.00300
Br4140     Br  0.31068655  0.50874055  0.75111169    -0.04100
Br4141     Br  0.39000420  0.45674425  0.72092417     0.00400
Br4142     Br  0.40682563  0.54753227  0.74652735    -0.03400
Br4143     Br  0.47187045  0.49618045  0.75436805    -0.04300
Br4144     Br  0.30161512  0.50458816  0.77527467    -0.00300
C4145       C  0.32389889  0.56661023  0.68696462     0.01100
C4146       C  0.34832003  0.58044273  0.69210258     0.03900
C4147       C  0.34197735  0.60268803  0.69205857    -0.12100
C4148       C  0.31282339  0.61138453  0.68626830     0.23200
C4149       C  0.29039773  0.59769780  0.68043559    -0.12700
C4150       C  0.29576895  0.57528472  0.68082204     0.04600
C4151       C  0.30617691  0.63492619  0.68634058     0.27100
C4152       C  0.27670806  0.64364614  0.69202477    -0.13400
C4153       C  0.27251431  0.66605776  0.69274101     0.05100
C4154       C  0.29855420  0.67982042  0.68808922    -0.09400
C4155       C  0.32676631  0.67111422  0.68199448     0.06000
C4156       C  0.33054480  0.64869594  0.68111883    -0.13700
Br4157     Br  0.25175384  0.60969784  0.67213790    -0.05800
Br4158     Br  0.39224708  0.56893964  0.69856657    -0.00200
Br4159     Br  0.22994240  0.67796990  0.69964729     0.00300
Br4160     Br  0.36995118  0.63673521  0.67303807    -0.04100
Br4161     Br  0.26414374  0.55653860  0.67310894     0.00400
Br4162     Br  0.37226955  0.62115928  0.70025722    -0.03400
Br4163     Br  0.24306795  0.62487835  0.69913373    -0.04300
Br4164     Br  0.36106720  0.68985519  0.67509763    -0.00300
C4165       C  0.71956959  0.50524641  0.68781995     0.01100
C4166       C  0.69821288  0.52269308  0.69147644     0.03900
C4167       C  0.65851105  0.52242056  0.69086403    -0.12100
C4168       C  0.63993203  0.50495116  0.68645325     0.23200
C4169       C  0.66114802  0.48789804  0.68248038    -0.12700
C4170       C  0.70094823  0.48800960  0.68316204     0.04600
C4171       C  0.59799074  0.50455443  0.68601542     0.27100
C4172       C  0.57713570  0.49432363  0.69342149    -0.13400
C4173       C  0.53738175  0.49314995  0.69281171     0.05100
C4174       C  0.51811134  0.50331820  0.68501718    -0.09400
C4175       C  0.53926995  0.51455726  0.67788163     0.06000
C4176       C  0.57906259  0.51459814  0.67824271    -0.13700
Br4177     Br  0.63535387  0.46422870  0.67627964    -0.05800
Br4178     Br  0.72317281  0.54748141  0.69705002    -0.00200
Br4179     Br  0.51033508  0.47605101  0.70228872     0.00300
Br4180     Br  0.60801125  0.52807729  0.66799095    -0.04100
Br4181     Br  0.72957204  0.46402106  0.67816844     0.00400
Br4182     Br  0.62927289  0.54582399  0.69620326    -0.03400
Br4183     Br  0.60344820  0.48170983  0.70434669    -0.04300
Br4184     Br  0.51415905  0.53078645  0.66776736    -0.00300
C4185       C  0.01728707  0.49325019  0.68759085     0.01100
C4186       C  0.03791297  0.50466305  0.68041579     0.03900
C4187       C  0.07773818  0.50480149  0.68058147    -0.12100
C4188       C  0.09739850  0.49409288  0.68805347     0.23200
C4189       C  0.07706419  0.48357024  0.69548712    -0.12700
C4190       C  0.03713080  0.48306894  0.69525154     0.04600
C4191       C  0.13945779  0.49500928  0.68832914     0.27100
C4192       C  0.16137533  0.47867725  0.68398265    -0.13400
C4193       C  0.20128639  0.47998634  0.68406737     0.05100
C4194       C  0.21937681  0.49777181  0.68844481    -0.09400
C4195       C  0.19714012  0.51432115  0.69261450     0.06000
C4196       C  0.15743979  0.51277635  0.69265330    -0.13700
Br4197     Br  0.10423767  0.46984198  0.70597545    -0.05800
Br4198     Br  0.01179865  0.52130860  0.67061252    -0.00200
Br4199     Br  0.23091949  0.45684735  0.67868571     0.00300
Br4200     Br  0.12734167  0.53498077  0.69870390    -0.04100
Br4201     Br  0.01023537  0.46778131  0.70527314     0.00400
Br4202     Br  0.10571552  0.51976506  0.67057359    -0.03400
Br4203     Br  0.13644302  0.45439947  0.67805425    -0.04300
Br4204     Br  0.22068375  0.53973913  0.69801306    -0.00300
C4205       C  0.47971347  0.32112616  0.68315921     0.01100
C4206       C  0.45887347  0.33252013  0.67591028     0.03900
C4207       C  0.45141967  0.35460441  0.67702743    -0.12100
C4208       C  0.46390714  0.36565693  0.68536714     0.23200
C4209       C  0.48592361  0.35482749  0.69236880    -0.12700
C4210       C  0.49449205  0.33279626  0.69117660     0.04600
C4211       C  0.45466765  0.38891238  0.68641443     0.27100
C4212       C  0.47897686  0.40439873  0.68233867    -0.13400
C4213       C  0.46737547  0.42596258  0.68167924     0.05100
C4214       C  0.43149284  0.43236856  0.68528401    -0.09400
C4215       C  0.40803596  0.41705373  0.68984678     0.06000
C4216       C  0.41947250  0.39534139  0.69032355    -0.13700
Br4217     Br  0.50448531  0.37042448  0.70354346    -0.05800
Br4218     Br  0.43881264  0.31854606  0.66438356    -0.00200
Br4219     Br  0.50104069  0.44655517  0.67567049     0.00300
Br4220     Br  0.38617400  0.37403104  0.69583521    -0.04100
Br4221     Br  0.52965079  0.31941362  0.70001584     0.00400
Br4222     Br  0.42379045  0.37008405  0.66707410    -0.03400
Br4223     Br  0.52761905  0.39574502  0.67724367    -0.04300
Br4224     Br  0.35906220  0.42544363  0.69472660    -0.00300
C4225       C  0.80251263  0.56210035  0.56239976     0.01100
C4226       C  0.78243918  0.57566863  0.55597465     0.03900
C4227       C  0.78637957  0.59804516  0.55670598    -0.12100
C4228       C  0.80982932  0.60697872  0.56395360     0.23200
C4229       C  0.82870248  0.59358100  0.57062249    -0.12700
C4230       C  0.82513924  0.57114217  0.56985974     0.04600
C4231       C  0.81616659  0.63044240  0.56413247     0.27100
C4232       C  0.84281416  0.63959570  0.55772810    -0.13400
C4233       C  0.84581855  0.66200932  0.55698452     0.05100
C4234       C  0.82218526  0.67529155  0.56266374    -0.09400
C4235       C  0.79732478  0.66611776  0.56955428     0.06000
C4236       C  0.79416133  0.64366242  0.57023422    -0.13700
Br4237     Br  0.86107018  0.60610611  0.58044073    -0.05800
Br4238     Br  0.74906167  0.56373246  0.54620343    -0.00200
Br4239     Br  0.88268470  0.67452159  0.54827223     0.00300
Br4240     Br  0.75853709  0.63092686  0.57918783    -0.04100
Br4241     Br  0.85389370  0.55303300  0.57856854     0.00400
Br4242     Br  0.76097148  0.61657369  0.54750475    -0.03400
Br4243     Br  0.87422308  0.62129648  0.54974625    -0.04300
Br4244     Br  0.76582628  0.68417594  0.57763354    -0.00300
C4245       C  0.72867504  0.41952678  0.56421106     0.01100
C4246       C  0.72881119  0.40563427  0.57248199     0.03900
C4247       C  0.71739049  0.38404413  0.57159033    -0.12100
C4248       C  0.70953043  0.37522051  0.56237737     0.23200
C4249       C  0.71390294  0.38799980  0.55400439    -0.12700
C4250       C  0.72215350  0.41016285  0.55485969     0.04600
C4251       C  0.69844716  0.35214870  0.56158201     0.27100
C4252       C  0.72636103  0.33615020  0.56242533    -0.13400
C4253       C  0.71582021  0.31442174  0.56312590     0.05100
C4254       C  0.67732048  0.30830283  0.56239152    -0.09400
C4255       C  0.64947695  0.32423251  0.56108164     0.06000
C4256       C  0.65995984  0.34614093  0.56083784    -0.13700
Br4257     Br  0.70899042  0.37472548  0.54133752    -0.05800
Br4258     Br  0.74709786  0.41495649  0.58512112    -0.00200
Br4259     Br  0.75452570  0.29325616  0.56553158     0.00300
Br4260     Br  0.62158135  0.36804308  0.55999626    -0.04100
Br4261     Br  0.72318918  0.42688435  0.54299917     0.00400
Br4262     Br  0.71210114  0.36630624  0.58308685    -0.03400
Br4263     Br  0.77917661  0.34420854  0.56290662    -0.04300
Br4264     Br  0.59686712  0.31608339  0.56041288    -0.00300
C4265       C  0.79688902  0.49219571  0.59990952     0.01100
C4266       C  0.76599548  0.49389399  0.60642915     0.03900
C4267       C  0.77237290  0.49541666  0.61654882    -0.12100
C4268       C  0.80962129  0.49527770  0.62023266     0.23200
C4269       C  0.84048063  0.49435189  0.61371987    -0.12700
C4270       C  0.83418184  0.49295564  0.60358723     0.04600
C4271       C  0.81646803  0.49499059  0.63095443     0.27100
C4272       C  0.82690497  0.51390424  0.63592462    -0.13400
C4273       C  0.83624463  0.51316385  0.64592367     0.05100
C4274       C  0.83409160  0.49354137  0.65110270    -0.09400
C4275       C  0.82193742  0.47483837  0.64616588     0.06000
C4276       C  0.81396915  0.47548288  0.63610759    -0.13700
Br4277     Br  0.89148067  0.49421190  0.61876665    -0.05800
Br4278     Br  0.71475243  0.49498046  0.60150541    -0.00200
Br4279     Br  0.85468275  0.53883835  0.65225202     0.00300
Br4280     Br  0.80089253  0.44942154  0.62924694    -0.04100
Br4281     Br  0.87677245  0.49091560  0.59483781     0.00400
Br4282     Br  0.73011799  0.49743282  0.62542678    -0.03400
Br4283     Br  0.82944531  0.54069867  0.62889305    -0.04300
Br4284     Br  0.81442834  0.44839677  0.65318951    -0.00300
C4285       C  0.32445168  0.67527868  0.56366315     0.01100
C4286       C  0.29455912  0.66441418  0.56833509     0.03900
C4287       C  0.29610639  0.64202414  0.56951008    -0.12100
C4288       C  0.32592450  0.63025545  0.56527552     0.23200
C4289       C  0.35638377  0.64114586  0.56084565    -0.12700
C4290       C  0.35633494  0.66370649  0.56042311     0.04600
C4291       C  0.32223064  0.60664356  0.56431127     0.27100
C4292       C  0.34207999  0.59261009  0.57053537    -0.13400
C4293       C  0.33783761  0.57020976  0.56947237     0.05100
C4294       C  0.31249267  0.56189665  0.56243667    -0.09400
C4295       C  0.29106657  0.57609953  0.55666451     0.06000
C4296       C  0.29720153  0.59830054  0.55726871    -0.13700
Br4297     Br  0.39657759  0.62517556  0.55469627    -0.05800
Br4298     Br  0.24965130  0.67966098  0.57214634    -0.00200
Br4299     Br  0.36783138  0.55109437  0.57740122     0.00300
Br4300     Br  0.27210882  0.61732778  0.54821278    -0.04100
Br4301     Br  0.39992662  0.67888992  0.55546150     0.00400
Br4302     Br  0.25629442  0.62717630  0.57641256    -0.03400
Br4303     Br  0.37524657  0.60416619  0.58040415    -0.04300
Br4304     Br  0.25098893  0.56530462  0.54849932    -0.00300
C4305       C  0.41764659  0.49369186  0.56235491     0.01100
C4306       C  0.44113643  0.51006781  0.55851517     0.03900
C4307       C  0.48072401  0.50793232  0.55879399    -0.12100
C4308       C  0.49729851  0.48985801  0.56321686     0.23200
C4309       C  0.47407283  0.47383853  0.56735454    -0.12700
C4310       C  0.43429574  0.47565663  0.56687157     0.04600
C4311       C  0.53924892  0.48827341  0.56373764     0.27100
C4312       C  0.55950658  0.47636745  0.55672804    -0.13400
C4313       C  0.59942457  0.47562618  0.55704437     0.05100
C4314       C  0.61939624  0.48760675  0.56414444    -0.09400
C4315       C  0.59875608  0.50002923  0.57100050     0.06000
C4316       C  0.55894258  0.49982855  0.57094511    -0.13700
Br4317     Br  0.49696245  0.44924758  0.57351872    -0.05800
Br4318     Br  0.41944511  0.53600282  0.55314386    -0.00200
Br4319     Br  0.62608968  0.45697493  0.54815861     0.00300
Br4320     Br  0.53097982  0.51527598  0.58081991    -0.04100
Br4321     Br  0.40288568  0.45284847  0.57190495     0.00400
Br4322     Br  0.51257017  0.52960385  0.55292270    -0.03400
Br4323     Br  0.53223938  0.46102031  0.54671998    -0.04300
Br4324     Br  0.62450324  0.51827895  0.58031058    -0.00300
C4325       C  0.11955216  0.49907107  0.56211262     0.01100
C4326       C  0.10003077  0.51267134  0.56865814     0.03900
C4327       C  0.06026951  0.51333920  0.56861095    -0.12100
C4328       C  0.03980227  0.50148343  0.56164171     0.23200
C4329       C  0.05927743  0.48914964  0.55462615    -0.12700
C4330       C  0.09904504  0.48752688  0.55498371     0.04600
C4331       C  0.99776413  0.50149816  0.56190164     0.27100
C4332       C  0.97817977  0.48455349  0.56649356    -0.13400
C4333       C  0.93828540  0.48404400  0.56641950     0.05100
C4334       C  0.91779757  0.50092544  0.56206311    -0.09400
C4335       C  0.93759966  0.51854143  0.55797757     0.06000
C4336       C  0.97742219  0.51857507  0.55771229    -0.13700
Br4337     Br  0.03116996  0.47396218  0.54472302    -0.05800
Br4338     Br  0.12767457  0.53084508  0.57760656    -0.00200
Br4339     Br  0.91201798  0.45949170  0.57166671     0.00300
Br4340     Br  0.00432588  0.54179495  0.55145043    -0.04100
Br4341     Br  0.12471863  0.46807000  0.54622936     0.00400
Br4342     Br  0.03360026  0.52967547  0.57840307    -0.03400
Br4343     Br  0.00631652  0.46196962  0.57282030    -0.04300
Br4344     Br  0.91034343  0.54307586  0.55296963    -0.00300
C4345       C  0.21072556  0.42608481  0.56213990     0.01100
C4346       C  0.17631438  0.41762123  0.56581085     0.03900
C4347       C  0.16816620  0.39559252  0.56490751    -0.12100
C4348       C  0.19340705  0.38190198  0.55994993     0.23200
C4349       C  0.22633533  0.39057145  0.55563645    -0.12700
C4350       C  0.23546903  0.41248096  0.55691775     0.04600
C4351       C  0.18707618  0.35821297  0.56019699     0.27100
C4352       C  0.20831180  0.34554740  0.56670504    -0.13400
C4353       C  0.20094422  0.32344818  0.56756082     0.05100
C4354       C  0.17003041  0.31401682  0.56254006    -0.09400
C4355       C  0.14885874  0.32669948  0.55596465     0.06000
C4356       C  0.15836412  0.34852776  0.55453375    -0.13700
Br4357     Br  0.25923056  0.37216055  0.54814692    -0.05800
Br4358     Br  0.13928726  0.43617794  0.57190105    -0.00200
Br4359     Br  0.23489317  0.30611897  0.57534839     0.00300
Br4360     Br  0.13199607  0.36536305  0.54488849    -0.04100
Br4361     Br  0.28327614  0.42324688  0.55220201     0.00400
Br4362     Br  0.12288650  0.38399983  0.57082228    -0.03400
Br4363     Br  0.24680011  0.35865358  0.57478478    -0.04300
Br4364     Br  0.10497452  0.31491997  0.54953701    -0.00300
C4365       C  0.29360335  0.49053369  0.59919825     0.01100
C4366       C  0.29013916  0.51069137  0.60385422     0.03900
C4367       C  0.29504529  0.51234286  0.61401371    -0.12100
C4368       C  0.30304162  0.49388197  0.61955601     0.23200
C4369       C  0.30504427  0.47366607  0.61499267    -0.12700
C4370       C  0.30071790  0.47198549  0.60483043     0.04600
C4371       C  0.31262266  0.49581497  0.63003763     0.27100
C4372       C  0.35069079  0.49868933  0.63276470    -0.13400
C4373       C  0.36073975  0.49916727  0.64266580     0.05100
C4374       C  0.33287457  0.49607038  0.64991832    -0.09400
C4375       C  0.29445381  0.49401511  0.64718197     0.06000
C4376       C  0.28438590  0.49394192  0.63723749    -0.13700
Br4377     Br  0.31381185  0.44829467  0.62275077    -0.05800
Br4378     Br  0.27649864  0.53590784  0.59645742    -0.00200
Br4379     Br  0.41261637  0.50518554  0.64624351     0.00300
Br4380     Br  0.23214762  0.49068795  0.63339650    -0.04100
Br4381     Br  0.30627704  0.44430755  0.59863996     0.00400
Br4382     Br  0.29047502  0.53979675  0.62043175    -0.03400
Br4383     Br  0.38922500  0.50143353  0.62285151    -0.04300
Br4384     Br  0.25567175  0.49027712  0.65692605    -0.00300
C4385       C  0.01013203  0.99123192  0.47321029     0.01100
C4386       C  0.00270847  0.01052448  0.47827278     0.03900
C4387       C  0.99868639  0.01032031  0.48848922    -0.12100
C4388       C  0.00196055  0.99089162  0.49368953     0.23200
C4389       C  0.01056847  0.97175626  0.48868796    -0.12700
C4390       C  0.01509587  0.97195823  0.47849920     0.04600
C4391       C  0.99825894  0.99083926  0.50447888     0.27100
C4392       C  0.03109541  0.99133116  0.51026359    -0.13400
C4393       C  0.02808589  0.99197525  0.52046400     0.05100
C4394       C  0.99218375  0.99346922  0.52498332    -0.09400
C4395       C  0.95921107  0.99283596  0.51918502     0.06000
C4396       C  0.96227686  0.99092372  0.50895509    -0.13700
Br4397     Br  0.01485991  0.94513838  0.49580640    -0.05800
Br4398     Br  0.99510709  0.03702555  0.47123810    -0.00200
Br4399     Br  0.07364807  0.99004768  0.52817437     0.00300
Br4400     Br  0.91741118  0.98868743  0.50100089    -0.04100
Br4401     Br  0.02853337  0.94574521  0.47179699     0.00400
Br4402     Br  0.98739979  0.03655733  0.49539433    -0.03400
Br4403     Br  0.08038500  0.99179491  0.50414991    -0.04300
Br4404     Br  0.91017837  0.99623248  0.52513148    -0.00300
C4405       C  0.51472161  0.99429992  0.47358901     0.01100
C4406       C  0.50808128  0.01325602  0.47896027     0.03900
C4407       C  0.50514971  0.01225584  0.48917994    -0.12100
C4408       C  0.50697272  0.99221605  0.49394876     0.23200
C4409       C  0.51502430  0.97346913  0.48859626    -0.12700
C4410       C  0.52067524  0.97473311  0.47850592     0.04600
C4411       C  0.50199826  0.99091677  0.50463501     0.27100
C4412       C  0.53382204  0.98738308  0.51058421    -0.13400
C4413       C  0.52950313  0.98632652  0.52071402     0.05100
C4414       C  0.49393355  0.99048964  0.52500336    -0.09400
C4415       C  0.46180379  0.99330860  0.51907976     0.06000
C4416       C  0.46572704  0.99307174  0.50886329    -0.13700
Br4417     Br  0.51639452  0.94585618  0.49499190    -0.05800
Br4418     Br  0.50009439  0.04027251  0.47238067    -0.00200
Br4419     Br  0.57232849  0.97828270  0.52865565     0.00300
Br4420     Br  0.42168820  0.99605337  0.50065690    -0.04100
Br4421     Br  0.53726792  0.94968939  0.47138060     0.00400
Br4422     Br  0.49754420  0.03819557  0.49664548    -0.03400
Br4423     Br  0.58370922  0.98482336  0.50488943    -0.04300
Br4424     Br  0.41307113  0.99859294  0.52494354    -0.00300
C4425       C  0.83565648  0.00024622  0.43759518     0.01100
C4426       C  0.81585628  0.01211615  0.44476570     0.03900
C4427       C  0.77605933  0.01252824  0.44475023    -0.12100
C4428       C  0.75582189  0.00172068  0.43740252     0.23200
C4429       C  0.77542602  0.99058289  0.43002104    -0.12700
C4430       C  0.81525951  0.98963955  0.43015540     0.04600
C4431       C  0.71385754  0.00249325  0.43729389     0.27100
C4432       C  0.69254243  0.98646435  0.44203284    -0.13400
C4433       C  0.65270666  0.98655770  0.44141488     0.05100
C4434       C  0.63405606  0.00303482  0.43622158    -0.09400
C4435       C  0.65562177  0.01973005  0.43192858     0.06000
C4436       C  0.69536629  0.01924456  0.43235489    -0.13700
Br4437     Br  0.74737119  0.97620799  0.41985744    -0.05800
Br4438     Br  0.84307989  0.02843321  0.45450144    -0.00200
Br4439     Br  0.62421772  0.96336657  0.44719065     0.00300
Br4440     Br  0.72484833  0.04145292  0.42610416    -0.04100
Br4441     Br  0.84136313  0.97253246  0.42052682     0.00400
Br4442     Br  0.74896087  0.02750985  0.45490615    -0.03400
Br4443     Br  0.71825456  0.96431110  0.44928794    -0.04300
Br4444     Br  0.63110003  0.04393515  0.42576310    -0.00300
C4445       C  0.13431492  0.99926036  0.43596049     0.01100
C4446       C  0.15262089  0.98494036  0.44241064     0.03900
C4447       C  0.19240033  0.98536134  0.44329211    -0.12100
C4448       C  0.21392342  0.00002180  0.43776469     0.23200
C4449       C  0.19569756  0.01496347  0.43170801    -0.12700
C4450       C  0.15608647  0.01478979  0.43087242     0.04600
C4451       C  0.25586578  0.99954609  0.43812299     0.27100
C4452       C  0.27559006  0.01355128  0.44437198    -0.13400
C4453       C  0.31541520  0.01366098  0.44440323     0.05100
C4454       C  0.33574041  0.99880790  0.43860009    -0.09400
C4455       C  0.31576165  0.98469735  0.43237500     0.06000
C4456       C  0.27597469  0.98550711  0.43196287    -0.13700
Br4457     Br  0.22536126  0.03567546  0.42451049    -0.05800
Br4458     Br  0.12383877  0.96423885  0.44980662    -0.00200
Br4459     Br  0.34186115  0.03479716  0.45216528     0.00300
Br4460     Br  0.24866739  0.96715981  0.42305360    -0.04100
Br4461     Br  0.13214402  0.03693028  0.42313444     0.00400
Br4462     Br  0.21781375  0.96580709  0.45200803    -0.03400
Br4463     Br  0.24776535  0.03222310  0.45302999    -0.04300
Br4464     Br  0.34219305  0.96294045  0.42500667    -0.00300
C4465       C  0.87844298  0.99671993  0.27486655     0.01100
C4466       C  0.84581960  0.99312829  0.26919507     0.03900
C4467       C  0.84805925  0.99426781  0.25894242    -0.12100
C4468       C  0.88294856  0.99895634  0.25438460     0.23200
C4469       C  0.91510713  0.00340454  0.26008546    -0.12700
C4470       C  0.91284291  0.00237027  0.27029166     0.04600
C4471       C  0.88623560  0.99890423  0.24360067     0.27100
C4472       C  0.89198017  0.97943225  0.23856221    -0.13400
C4473       C  0.89313470  0.97923740  0.22829831     0.05100
C4474       C  0.88977659  0.99861371  0.22306794    -0.09400
C4475       C  0.88713058  0.01823850  0.22817690     0.06000
C4476       C  0.88431810  0.01834659  0.23839876    -0.13700
Br4477     Br  0.96252697  0.01046111  0.25385128    -0.05800
Br4478     Br  0.79875592  0.98568123  0.27545158    -0.00200
Br4479     Br  0.89530086  0.95226165  0.22141519     0.00300
Br4480     Br  0.87521524  0.04491001  0.24525784    -0.04100
Br4481     Br  0.95704084  0.00902339  0.27801301     0.00400
Br4482     Br  0.80368131  0.98902923  0.25109971    -0.03400
Br4483     Br  0.89620079  0.95292671  0.24575055    -0.04300
Br4484     Br  0.88571411  0.04495371  0.22105242    -0.00300
C4485       C  0.95850131  0.00582247  0.39966448     0.01100
C4486       C  0.98835599  0.99907475  0.39354154     0.03900
C4487       C  0.98419130  0.99973308  0.38334623    -0.12100
C4488       C  0.94994335  0.00679214  0.37919791     0.23200
C4489       C  0.92015318  0.01369890  0.38529592    -0.12700
C4490       C  0.92469085  0.01358645  0.39551660     0.04600
C4491       C  0.94500627  0.00637619  0.36843079     0.27100
C4492       C  0.95397808  0.02456309  0.36276618    -0.13400
C4493       C  0.94807909  0.02424088  0.35260309     0.05100
C4494       C  0.93356174  0.00564233  0.34805578    -0.09400
C4495       C  0.92629778  0.98712979  0.35368376     0.06000
C4496       C  0.93173068  0.98757087  0.36384892    -0.13700
Br4497     Br  0.87322658  0.02329037  0.37959147    -0.05800
Br4498     Br  0.03507263  0.98869471  0.39913422    -0.00200
Br4499     Br  0.96102849  0.04902366  0.34485769     0.00300
Br4500     Br  0.92018661  0.96255897  0.37159828    -0.04100
Br4501     Br  0.88587071  0.02542183  0.40380369     0.00400
Br4502     Br  0.02543654  0.99107498  0.37499848    -0.03400
Br4503     Br  0.97427686  0.04986862  0.36897914    -0.04300
Br4504     Br  0.90699324  0.96142405  0.34757553    -0.00300
C4505       C  0.37141888  0.98945574  0.27589575     0.01100
C4506       C  0.38112677  0.00852699  0.27092644     0.03900
C4507       C  0.38304514  0.00873731  0.26065686    -0.12100
C4508       C  0.37509314  0.98995863  0.25528070     0.23200
C4509       C  0.36421156  0.97108687  0.26022147    -0.12700
C4510       C  0.36259816  0.97079090  0.27048528     0.04600
C4511       C  0.37546204  0.99050783  0.24441543     0.27100
C4512       C  0.34125926  0.99362005  0.23936782    -0.13400
C4513       C  0.34088221  0.99417877  0.22912270     0.05100
C4514       C  0.37510194  0.99270342  0.22377887    -0.09400
C4515       C  0.40948607  0.98952751  0.22884366     0.06000
C4516       C  0.40956593  0.98822294  0.23913849    -0.13700
Br4517     Br  0.35142044  0.94564002  0.25288132    -0.05800
Br4518     Br  0.39418793  0.03407239  0.27816566    -0.00200
Br4519     Br  0.29268724  0.99588708  0.22249565     0.00300
Br4520     Br  0.45641132  0.98383924  0.24607958    -0.04100
Br4521     Br  0.34768384  0.94480232  0.27714481     0.00400
Br4522     Br  0.39682466  0.03473604  0.25388657    -0.03400
Br4523     Br  0.29485935  0.99776363  0.24659020    -0.04300
Br4524     Br  0.45667743  0.98820546  0.22178616    -0.00300
C4525       C  0.74907628  0.00220703  0.31285392     0.01100
C4526       C  0.72754985  0.01793877  0.31789002     0.03900
C4527       C  0.68777233  0.01710322  0.31779740    -0.12100
C4528       C  0.66902228  0.00147474  0.31220150     0.23200
C4529       C  0.69014893  0.98674250  0.30661279    -0.12700
C4530       C  0.73005745  0.98673050  0.30710201     0.04600
C4531       C  0.62700055  0.00051702  0.31218614     0.27100
C4532       C  0.60787170  0.98722830  0.31888812    -0.13400
C4533       C  0.56820301  0.98507688  0.31841537     0.05100
C4534       C  0.54744163  0.99670165  0.31138056    -0.09400
C4535       C  0.56655204  0.01091375  0.30503343     0.06000
C4536       C  0.60623494  0.01270826  0.30540638    -0.13700
Br4537     Br  0.66400080  0.96658066  0.29830064    -0.05800
Br4538     Br  0.75194619  0.04166489  0.32450740    -0.00200
Br4539     Br  0.54286250  0.96508946  0.32697640     0.00300
Br4540     Br  0.63242103  0.03183767  0.29662918    -0.04100
Br4541     Br  0.75795723  0.96466635  0.30033986     0.00400
Br4542     Br  0.65863123  0.03728961  0.32540800    -0.03400
Br4543     Br  0.63629756  0.97197936  0.32869588    -0.04300
Br4544     Br  0.53835495  0.02845164  0.29597641    -0.00300
C4545       C  0.24910270  0.99379603  0.31421378     0.01100
C4546       C  0.22641369  0.00932715  0.31900732     0.03900
C4547       C  0.18677390  0.00820408  0.31843084    -0.12100
C4548       C  0.16934925  0.99183845  0.31297816     0.23200
C4549       C  0.19166803  0.97632993  0.30818125    -0.12700
C4550       C  0.23151891  0.97725238  0.30880632     0.04600
C4551       C  0.12751679  0.99180313  0.31198393     0.27100
C4552       C  0.10483816  0.98052325  0.31870512    -0.13400
C4553       C  0.06507698  0.98160459  0.31805624     0.05100
C4554       C  0.04788805  0.99434057  0.31077203    -0.09400
C4555       C  0.07076801  0.00609124  0.30422898     0.06000
C4556       C  0.11042864  0.00455810  0.30474891    -0.13700
Br4557     Br  0.16736510  0.95382979  0.30081078    -0.05800
Br4558     Br  0.24905702  0.03298654  0.32607606    -0.00200
Br4559     Br  0.03444398  0.96479755  0.32688382     0.00300
Br4560     Br  0.14169393  0.02005707  0.29559358    -0.04100
Br4561     Br  0.26167612  0.95525462  0.30265880     0.00400
Br4562     Br  0.15590702  0.02926397  0.32506226    -0.03400
Br4563     Br  0.12848512  0.96366559  0.32880347    -0.04300
Br4564     Br  0.04793918  0.02523664  0.29485646    -0.00300
C4565       C  0.43129160  0.99858539  0.34928786     0.01100
C4566       C  0.43575360  0.01747893  0.35487561     0.03900
C4567       C  0.43919104  0.01623209  0.36505887    -0.12100
C4568       C  0.43865434  0.99611658  0.36971081     0.23200
C4569       C  0.43586155  0.97717502  0.36416861    -0.12700
C4570       C  0.43262761  0.97833229  0.35396140     0.04600
C4571       C  0.44364099  0.99489993  0.38039685     0.27100
C4572       C  0.48014407  0.99185868  0.38424967    -0.13400
C4573       C  0.48555291  0.99173949  0.39437605     0.05100
C4574       C  0.45476107  0.99563474  0.40067696    -0.09400
C4575       C  0.41796290  0.99792482  0.39684761     0.06000
C4576       C  0.41238190  0.99741741  0.38668539    -0.13700
Br4577     Br  0.43592049  0.94967780  0.37067370    -0.05800
Br4578     Br  0.43978126  0.04509243  0.34860476    -0.00200
Br4579     Br  0.53511098  0.98560165  0.39963330     0.00300
Br4580     Br  0.36230437  0.00095083  0.38131308    -0.04100
Br4581     Br  0.42905450  0.95198307  0.34660105     0.00400
Br4582     Br  0.44491297  0.04208679  0.37269934    -0.03400
Br4583     Br  0.52295224  0.98881115  0.37560075    -0.04300
Br4584     Br  0.37569817  0.00298373  0.40544080    -0.00300
C4585       C  0.62483726  0.24641894  0.52433452     0.01100
C4586       C  0.58842024  0.25258938  0.52110318     0.03900
C4587       C  0.58052315  0.25429310  0.51107704    -0.12100
C4588       C  0.60946246  0.25093055  0.50419813     0.23200
C4589       C  0.64647349  0.24607156  0.50742654    -0.12700
C4590       C  0.65397211  0.24339613  0.51746409     0.04600
C4591       C  0.60100794  0.25199534  0.49356445     0.27100
C4592       C  0.59582200  0.23295271  0.48816713    -0.13400
C4593       C  0.59376312  0.23363690  0.47789232     0.05100
C4594       C  0.59544351  0.25360675  0.47297570    -0.09400
C4595       C  0.59599069  0.27277325  0.47856398     0.06000
C4596       C  0.59953640  0.27194107  0.48878018    -0.13700
Br4597     Br  0.68658528  0.24250303  0.49802186    -0.05800
Br4598     Br  0.54911693  0.25893413  0.53043800    -0.00200
Br4599     Br  0.59216305  0.20695248  0.47073271     0.00300
Br4600     Br  0.60379261  0.29815348  0.49623497    -0.04100
Br4601     Br  0.70328072  0.23417204  0.52174062     0.00400
Br4602     Br  0.52962539  0.26022423  0.50671828    -0.03400
Br4603     Br  0.59258758  0.20588005  0.49495493    -0.04300
Br4604     Br  0.59166228  0.30044024  0.47233239    -0.00300
C4605       C  0.58380645  0.17790508  0.43694230     0.01100
C4606       C  0.55137687  0.17162411  0.44225695     0.03900
C4607       C  0.54105476  0.14982529  0.44281608    -0.12100
C4608       C  0.56281738  0.13418068  0.43798985     0.23200
C4609       C  0.59604182  0.14025016  0.43300615    -0.12700
C4610       C  0.60661443  0.16203786  0.43251611     0.04600
C4611       C  0.54996460  0.11146373  0.43776798     0.27100
C4612       C  0.56516203  0.09649401  0.44436710    -0.13400
C4613       C  0.55598713  0.07456996  0.44351030     0.05100
C4614       C  0.53018089  0.06760726  0.43625287    -0.09400
C4615       C  0.51315188  0.08292792  0.43004785     0.06000
C4616       C  0.52354863  0.10471676  0.43069815    -0.13700
Br4617     Br  0.62607568  0.11869844  0.42649300    -0.05800
Br4618     Br  0.51874653  0.19285568  0.44800639    -0.00200
Br4619     Br  0.58195412  0.05416055  0.45174619     0.00300
Br4620     Br  0.50261993  0.12535085  0.42169105    -0.04100
Br4621     Br  0.65227449  0.17016782  0.42571078     0.00400
Br4622     Br  0.49601104  0.14134649  0.44979723    -0.03400
Br4623     Br  0.59952486  0.10613559  0.45440429    -0.04300
Br4624     Br  0.47503130  0.07425017  0.42074273    -0.00300
C4625       C  0.14899040  0.24052289  0.52562779     0.01100
C4626       C  0.14748712  0.26079673  0.52097365     0.03900
C4627       C  0.14344119  0.26203405  0.51076128    -0.12100
C4628       C  0.14011120  0.24315522  0.50517058     0.23200
C4629       C  0.14350684  0.22300173  0.50969242    -0.12700
C4630       C  0.14859884  0.22165842  0.51983829     0.04600
C4631       C  0.13467428  0.24438882  0.49445244     0.27100
C4632       C  0.09803875  0.24623085  0.49042460    -0.13400
C4633       C  0.09319793  0.24704629  0.48021913     0.05100
C4634       C  0.12506326  0.24639484  0.47404637    -0.09400
C4635       C  0.16161061  0.24403822  0.47812455     0.06000
C4636       C  0.16635788  0.24312506  0.48828182    -0.13700
Br4637     Br  0.14056529  0.19717431  0.50191527    -0.05800
Br4638     Br  0.14831575  0.28705924  0.52843396    -0.00200
Br4639     Br  0.04322849  0.24991599  0.47472732     0.00300
Br4640     Br  0.21641380  0.24040079  0.49383089    -0.04100
Br4641     Br  0.15593160  0.19372799  0.52566097     0.00400
Br4642     Br  0.14178787  0.28959502  0.50434826    -0.03400
Br4643     Br  0.05473552  0.24816334  0.49893738    -0.04300
Br4644     Br  0.20549004  0.24126396  0.46982873    -0.00300
C4645       C  0.98331214  0.24370593  0.43876895     0.01100
C4646       C  0.96183272  0.25649812  0.43227350     0.03900
C4647       C  0.92203497  0.25604545  0.43257574    -0.12100
C4648       C  0.90327704  0.24362580  0.43964604     0.23200
C4649       C  0.92443566  0.23191882  0.44652580    -0.12700
C4650       C  0.96431899  0.23187133  0.44607483     0.04600
C4651       C  0.86129905  0.24416497  0.44021317     0.27100
C4652       C  0.84353638  0.26104181  0.44524844    -0.13400
C4653       C  0.80385079  0.26267001  0.44529938     0.05100
C4654       C  0.78141296  0.24678319  0.44065557    -0.09400
C4655       C  0.79936404  0.22945530  0.43586921     0.06000
C4656       C  0.83923201  0.22844751  0.43546627    -0.13700
Br4657     Br  0.89843922  0.21577526  0.45649864    -0.05800
Br4658     Br  0.98675603  0.27568078  0.42324891    -0.00200
Br4659     Br  0.78090390  0.28753898  0.45133297     0.00300
Br4660     Br  0.86386125  0.20569536  0.42834319    -0.04100
Br4661     Br  0.99217641  0.21493976  0.45530220     0.00400
Br4662     Br  0.89285386  0.27225684  0.42322188    -0.03400
Br4663     Br  0.87402610  0.28208196  0.45202155    -0.04300
Br4664     Br  0.76971702  0.20633103  0.43041590    -0.00300
C4665       C  0.28101095  0.25232038  0.43437831     0.01100
C4666       C  0.30250309  0.27116275  0.43595932     0.03900
C4667       C  0.34206438  0.27077231  0.43487138    -0.12100
C4668       C  0.36054360  0.25144247  0.43252442     0.23200
C4669       C  0.33907341  0.23283494  0.43053463    -0.12700
C4670       C  0.29931001  0.23328599  0.43141941     0.04600
C4671       C  0.40262313  0.25064001  0.43255646     0.27100
C4672       C  0.42290425  0.25435221  0.42392859    -0.13400
C4673       C  0.46280436  0.25383337  0.42396325     0.05100
C4674       C  0.48306926  0.24920777  0.43271139    -0.09400
C4675       C  0.46217303  0.24730873  0.44154955     0.06000
C4676       C  0.42222416  0.24767098  0.44138385    -0.13700
Br4677     Br  0.36434733  0.20666706  0.42680383    -0.05800
Br4678     Br  0.27806321  0.29761226  0.43974549    -0.00200
Br4679     Br  0.48860655  0.26160415  0.41202615     0.00300
Br4680     Br  0.39372268  0.24437814  0.45332529    -0.04100
Br4681     Br  0.27024561  0.20744002  0.42929825     0.00400
Br4682     Br  0.37131803  0.29668441  0.43666007    -0.03400
Br4683     Br  0.39540460  0.26085743  0.41210613    -0.04300
Br4684     Br  0.48663720  0.24490075  0.45411929    -0.00300
C4685       C  0.09587906  0.17461970  0.43794688     0.01100
C4686       C  0.10812289  0.16038963  0.43054039     0.03900
C4687       C  0.09993887  0.13831967  0.43118186    -0.12100
C4688       C  0.07839013  0.13041868  0.43903044     0.23200
C4689       C  0.06963379  0.14406849  0.44689760    -0.12700
C4690       C  0.07984185  0.16594317  0.44655243     0.04600
C4691       C  0.06399572  0.10798472  0.43879505     0.27100
C4692       C  0.03239697  0.10284221  0.43293899    -0.13400
C4693       C  0.02044631  0.08137082  0.43203361     0.05100
C4694       C  0.03913544  0.06504937  0.43726127    -0.09400
C4695       C  0.06944741  0.07035600  0.44353165     0.06000
C4696       C  0.08244540  0.09170082  0.44410183    -0.13700
Br4697     Br  0.04212511  0.13290662  0.45795365    -0.05800
Br4698     Br  0.13754392  0.17086560  0.41965832    -0.00200
Br4699     Br  0.97857906  0.07420597  0.42357895     0.00300
Br4700     Br  0.12701825  0.09848465  0.45163852    -0.04100
Br4701     Br  0.07215365  0.18337538  0.45798520     0.00400
Br4702     Br  0.11776518  0.11877776  0.42126872    -0.03400
Br4703     Br  0.00612567  0.12521974  0.42595019    -0.04300
Br4704     Br  0.09482010  0.04822954  0.45089646    -0.00300
C4705       C  0.75226890  0.24312377  0.22361267     0.01100
C4706       C  0.78771780  0.24296276  0.22842337     0.03900
C4707       C  0.78952474  0.24258138  0.23865958    -0.12100
C4708       C  0.75619926  0.24447240  0.24420490     0.23200
C4709       C  0.72090521  0.24619661  0.23943595    -0.12700
C4710       C  0.71881803  0.24476705  0.22917785     0.04600
C4711       C  0.75845421  0.24458613  0.25504070     0.27100
C4712       C  0.75021544  0.22579254  0.26037141    -0.13400
C4713       C  0.75155148  0.22603896  0.27064011     0.05100
C4714       C  0.76038727  0.24523062  0.27562695    -0.09400
C4715       C  0.77047868  0.26371164  0.27027087     0.06000
C4716       C  0.76944598  0.26340535  0.26001248    -0.13700
Br4717     Br  0.67543261  0.25012015  0.24701360    -0.05800
Br4718     Br  0.83423282  0.24429653  0.22104007    -0.00200
Br4719     Br  0.73875776  0.20041260  0.27783992     0.00300
Br4720     Br  0.78160552  0.28902775  0.25274661    -0.04100
Br4721     Br  0.67014031  0.24329618  0.22289273     0.00400
Br4722     Br  0.83756385  0.23850670  0.24512572    -0.03400
Br4723     Br  0.73551817  0.19995422  0.25357573    -0.04300
Br4724     Br  0.78601744  0.28946364  0.27702799    -0.00300
C4725       C  0.77917332  0.17358701  0.31184362     0.01100
C4726       C  0.80535165  0.16853509  0.30435516     0.03900
C4727       C  0.81801807  0.14728202  0.30314763    -0.12100
C4728       C  0.80481646  0.13102313  0.30938407     0.23200
C4729       C  0.77681418  0.13568192  0.31638539    -0.12700
C4730       C  0.76412109  0.15692208  0.31764743     0.04600
C4731       C  0.82181504  0.10926960  0.30898591     0.27100
C4732       C  0.80452240  0.09293637  0.30346413    -0.13400
C4733       C  0.81802067  0.07172975  0.30408142     0.05100
C4734       C  0.84885610  0.06685067  0.31027048    -0.09400
C4735       C  0.86826054  0.08357028  0.31505555     0.06000
C4736       C  0.85467235  0.10475791  0.31445283    -0.13700
Br4737     Br  0.75647614  0.11290152  0.32436516    -0.05800
Br4738     Br  0.82681956  0.19070710  0.29620186    -0.00200
Br4739     Br  0.79248988  0.04931379  0.29690011     0.00300
Br4740     Br  0.88029325  0.12756689  0.32133719    -0.04100
Br4741     Br  0.72583492  0.16306800  0.32727784     0.00400
Br4742     Br  0.85457619  0.14034455  0.29317308    -0.03400
Br4743     Br  0.76148911  0.09964358  0.29535434    -0.04300
Br4744     Br  0.91383651  0.07737312  0.32225529    -0.00300
C4745       C  0.69721078  0.23868611  0.34910063     0.01100
C4746       C  0.69081813  0.22018469  0.35483101     0.03900
C4747       C  0.68950047  0.22173800  0.36506226    -0.12100
C4748       C  0.69212334  0.24193983  0.36962976     0.23200
C4749       C  0.69719212  0.26053930  0.36394925    -0.12700
C4750       C  0.70026796  0.25893535  0.35372767     0.04600
C4751       C  0.68584947  0.24368741  0.38030966     0.27100
C4752       C  0.64902456  0.24756229  0.38380709    -0.13400
C4753       C  0.64189194  0.24751801  0.39387221     0.05100
C4754       C  0.67121841  0.24276897  0.40050782    -0.09400
C4755       C  0.70852859  0.23996430  0.39706303     0.06000
C4756       C  0.71589464  0.24071799  0.38695516    -0.13700
Br4757     Br  0.70025822  0.28817294  0.37027778    -0.05800
Br4758     Br  0.68098468  0.19286158  0.34868953    -0.00200
Br4759     Br  0.59205534  0.25492415  0.39860337     0.00300
Br4760     Br  0.76688525  0.23762310  0.38214850    -0.04100
Br4761     Br  0.71049574  0.28450179  0.34622899     0.00400
Br4762     Br  0.68440366  0.19614264  0.37289050    -0.03400
Br4763     Br  0.60813710  0.25261640  0.37475315    -0.04300
Br4764     Br  0.74907511  0.23411461  0.40608673    -0.00300
C4765       C  0.24718087  0.23914657  0.27493622     0.01100
C4766       C  0.28059111  0.23395552  0.26976311     0.03900
C4767       C  0.27987262  0.23247075  0.25946942    -0.12100
C4768       C  0.24612382  0.23672069  0.25430757     0.23200
C4769       C  0.21286445  0.24165712  0.25943374    -0.12700
C4770       C  0.21301154  0.24228049  0.26965953     0.04600
C4771       C  0.24475105  0.23643348  0.24347034     0.27100
C4772       C  0.25377579  0.25512819  0.23817520    -0.13400
C4773       C  0.24828027  0.25575930  0.22800686     0.05100
C4774       C  0.23249448  0.23797040  0.22309585    -0.09400
C4775       C  0.22272288  0.21942783  0.22846087     0.06000
C4776       C  0.22952086  0.21850726  0.23856987    -0.13700
Br4777     Br  0.16696506  0.24817207  0.25231020    -0.05800
Br4778     Br  0.32781463  0.23016067  0.27661469    -0.00200
Br4779     Br  0.26507694  0.28043957  0.22075935     0.00300
Br4780     Br  0.21824191  0.19266625  0.24576852    -0.04100
Br4781     Br  0.16511181  0.24640302  0.27621015     0.00400
Br4782     Br  0.32510751  0.22505552  0.25236978    -0.03400
Br4783     Br  0.27378993  0.27986935  0.24490500    -0.04300
Br4784     Br  0.19915853  0.19540377  0.22197575    -0.00300
C4785       C  0.07930646  0.24224486  0.31102812     0.01100
C4786       C  0.06006090  0.25585492  0.31759556     0.03900
C4787       C  0.02021832  0.25547249  0.31803883    -0.12100
C4788       C  0.99951317  0.24146798  0.31195063     0.23200
C4789       C  0.01877676  0.22767073  0.30549526    -0.12700
C4790       C  0.05853561  0.22800441  0.30505409     0.04600
C4791       C  0.95752322  0.24077887  0.31252013     0.27100
C4792       C  0.93965314  0.22400862  0.31763340    -0.13400
C4793       C  0.89993010  0.22306521  0.31810603     0.05100
C4794       C  0.87773011  0.23954383  0.31387742    -0.09400
C4795       C  0.89571496  0.25635208  0.30875677     0.06000
C4796       C  0.93548970  0.25669763  0.30791312    -0.13700
Br4797     Br  0.99053424  0.20841697  0.29717839    -0.05800
Br4798     Br  0.08798862  0.27583960  0.32562868    -0.00200
Br4799     Br  0.87629250  0.19839509  0.32413348     0.00300
Br4800     Br  0.95999958  0.27892372  0.30041757    -0.04100
Br4801     Br  0.08457181  0.20841898  0.29642573     0.00400
Br4802     Br  0.99381178  0.27432633  0.32689625    -0.03400
Br4803     Br  0.96984484  0.20235002  0.32405863    -0.04300
Br4804     Br  0.86627408  0.27957620  0.30336173    -0.00300
C4805       C  0.57885129  0.24228691  0.31062079     0.01100
C4806       C  0.55804568  0.23190962  0.30312298     0.03900
C4807       C  0.51822361  0.23141389  0.30342188    -0.12100
C4808       C  0.49876141  0.24058137  0.31133282     0.23200
C4809       C  0.51923769  0.25004815  0.31903620    -0.12700
C4810       C  0.55910325  0.25123418  0.31863682     0.04600
C4811       C  0.45675457  0.23932126  0.31174530     0.27100
C4812       C  0.43429577  0.25634193  0.30820643    -0.13400
C4813       C  0.39449232  0.25517301  0.30880815     0.05100
C4814       C  0.37703188  0.23674698  0.31274896    -0.09400
C4815       C  0.39962477  0.21951387  0.31607927     0.06000
C4816       C  0.43932265  0.22087784  0.31562108    -0.13700
Br4817     Br  0.49231168  0.26118603  0.33018587    -0.05800
Br4818     Br  0.58363298  0.21718332  0.29260494    -0.00200
Br4819     Br  0.36406171  0.27938297  0.30486184     0.00300
Br4820     Br  0.47014565  0.19749193  0.32033779    -0.04100
Br4821     Br  0.58587851  0.26620462  0.32887578     0.00400
Br4822     Br  0.48992472  0.21791753  0.29303147    -0.03400
Br4823     Br  0.45823713  0.28124639  0.30257191    -0.04300
Br4824     Br  0.37640076  0.19370512  0.32112364    -0.00300
C4825       C  0.27604106  0.17032341  0.31237783     0.01100
C4826       C  0.30330159  0.16428640  0.30530995     0.03900
C4827       C  0.31654863  0.14294046  0.30488156    -0.12100
C4828       C  0.30207466  0.12733234  0.31130187     0.23200
C4829       C  0.27320482  0.13297680  0.31791733    -0.12700
C4830       C  0.26019306  0.15434727  0.31843936     0.04600
C4831       C  0.31787269  0.10511974  0.31134463     0.27100
C4832       C  0.30100106  0.08884732  0.30567547    -0.13400
C4833       C  0.31386286  0.06745364  0.30639197     0.05100
C4834       C  0.34365246  0.06214397  0.31285357    -0.09400
C4835       C  0.36126225  0.07865123  0.31828259     0.06000
C4836       C  0.34878333  0.10007629  0.31742242    -0.13700
Br4837     Br  0.25251993  0.11144689  0.32652171    -0.05800
Br4838     Br  0.32476954  0.18529444  0.29655411    -0.00200
Br4839     Br  0.28828304  0.04525193  0.29909245     0.00300
Br4840     Br  0.37360740  0.12264613  0.32466537    -0.04100
Br4841     Br  0.21984771  0.16157536  0.32729375     0.00400
Br4842     Br  0.35613777  0.13517525  0.29585708    -0.03400
Br4843     Br  0.25936304  0.09592841  0.29716322    -0.04300
Br4844     Br  0.40244621  0.07195979  0.32695942    -0.00300
C4845       C  0.15564816  0.23957744  0.39974998     0.01100
C4846       C  0.19338463  0.24094180  0.39635035     0.03900
C4847       C  0.20079675  0.24130790  0.38625663    -0.12100
C4848       C  0.17067080  0.24036166  0.37953261     0.23200
C4849       C  0.13306919  0.23969039  0.38289394    -0.12700
C4850       C  0.12550176  0.23922429  0.39295352     0.04600
C4851       C  0.17832489  0.23955586  0.36889907     0.27100
C4852       C  0.18445000  0.25862555  0.36362254    -0.13400
C4853       C  0.19219796  0.25774549  0.35355233     0.05100
C4854       C  0.19246024  0.23775158  0.34864096    -0.09400
C4855       C  0.18369347  0.21886156  0.35387302     0.06000
C4856       C  0.17793304  0.21968092  0.36400874    -0.13700
Br4857     Br  0.09191511  0.23979886  0.37361697    -0.05800
Br4858     Br  0.23528331  0.24131010  0.40540099    -0.00200
Br4859     Br  0.20415146  0.28396287  0.34671996     0.00300
Br4860     Br  0.16998292  0.19351357  0.37127387    -0.04100
Br4861     Br  0.07345632  0.23925446  0.39731046     0.00400
Br4862     Br  0.25223552  0.24300128  0.38157116    -0.03400
Br4863     Br  0.18232968  0.28590873  0.37028438    -0.04300
Br4864     Br  0.17656385  0.19202533  0.34710968    -0.00300
C4865       C  0.87184355  0.74358355  0.52461875     0.01100
C4866       C  0.83858905  0.73839462  0.51926770     0.03900
C4867       C  0.83921467  0.73778590  0.50902594    -0.12100
C4868       C  0.87205406  0.74377785  0.50392999     0.23200
C4869       C  0.90465839  0.75009286  0.50914262    -0.12700
C4870       C  0.90482143  0.74973198  0.51945079     0.04600
C4871       C  0.87125757  0.74437925  0.49308075     0.27100
C4872       C  0.88715868  0.72750313  0.48757198    -0.13400
C4873       C  0.88601456  0.72818797  0.47730738     0.05100
C4874       C  0.86768785  0.74531056  0.47252641    -0.09400
C4875       C  0.85055356  0.76172582  0.47803404     0.06000
C4876       C  0.85295944  0.76149432  0.48827203    -0.13700
Br4877     Br  0.94904180  0.75927699  0.50207429    -0.05800
Br4878     Br  0.79058628  0.73369366  0.52572705    -0.00200
Br4879     Br  0.91195978  0.70652874  0.46976870     0.00300
Br4880     Br  0.83210710  0.78494575  0.49573869    -0.04100
Br4881     Br  0.95077599  0.75700058  0.52629747     0.00400
Br4882     Br  0.79483748  0.72862759  0.50186771    -0.03400
Br4883     Br  0.91093087  0.70362995  0.49409503    -0.04300
Br4884     Br  0.82347685  0.78442807  0.47149325    -0.00300
C4885       C  0.93595614  0.81431830  0.43576956     0.01100
C4886       C  0.96477154  0.82673550  0.44023211     0.03900
C4887       C  0.96445742  0.84925985  0.43943997    -0.12100
C4888       C  0.93732035  0.85951745  0.43353812     0.23200
C4889       C  0.91040950  0.84710943  0.42845106    -0.12700
C4890       C  0.90875857  0.82468899  0.42984827     0.04600
C4891       C  0.93536931  0.88339783  0.43338101     0.27100
C4892       C  0.90882756  0.89402340  0.43931870    -0.13400
C4893       C  0.90896282  0.91656927  0.43994654     0.05100
C4894       C  0.93726593  0.92871649  0.43510330    -0.09400
C4895       C  0.96319173  0.91800912  0.42892289     0.06000
C4896       C  0.96151642  0.89547427  0.42788773    -0.13700
Br4897     Br  0.87513851  0.86109162  0.41979343    -0.05800
Br4898     Br  0.00572139  0.81306017  0.44722526    -0.00200
Br4899     Br  0.86939231  0.93060135  0.44733359     0.00300
Br4900     Br  0.99569861  0.88087897  0.41915042    -0.04100
Br4901     Br  0.86678768  0.80888313  0.42445319     0.00400
Br4902     Br  0.00007277  0.86623228  0.44686553    -0.03400
Br4903     Br  0.87332316  0.87750802  0.44698909    -0.04300
Br4904     Br  0.00322037  0.93359011  0.42249581    -0.00300
C4905       C  0.38421950  0.74378742  0.47463166     0.01100
C4906       C  0.35270215  0.74698614  0.48075906     0.03900
C4907       C  0.35696857  0.74576419  0.49099228    -0.12100
C4908       C  0.39288244  0.74163602  0.49514503     0.23200
C4909       C  0.42426773  0.73833264  0.48901571    -0.12700
C4910       C  0.41982718  0.73898896  0.47882362     0.04600
C4911       C  0.39761285  0.74069463  0.50594505     0.27100
C4912       C  0.39997110  0.75977166  0.51145998    -0.13400
C4913       C  0.39937734  0.75891892  0.52174167     0.05100
C4914       C  0.39764090  0.73886523  0.52654349    -0.09400
C4915       C  0.40062798  0.71984690  0.52098533     0.06000
C4916       C  0.39960735  0.72070877  0.51073360    -0.13700
Br4917     Br  0.47371703  0.73366740  0.49464222    -0.05800
Br4918     Br  0.30427115  0.75410319  0.47515146    -0.00200
Br4919     Br  0.39833091  0.78530512  0.52908683     0.00300
Br4920     Br  0.39947598  0.69444820  0.50326188    -0.04100
Br4921     Br  0.46272844  0.73266835  0.47060673     0.00400
Br4922     Br  0.31384513  0.75025501  0.49937459    -0.03400
Br4923     Br  0.40324084  0.78704687  0.50485079    -0.04300
Br4924     Br  0.40678717  0.69256610  0.52746843    -0.00300
C4925       C  0.44373636  0.92775568  0.43924762     0.01100
C4926       C  0.44497372  0.91798301  0.42982493     0.03900
C4927       C  0.44540732  0.89540216  0.42886521    -0.12100
C4928       C  0.44324521  0.88220284  0.43714350     0.23200
C4929       C  0.44113373  0.89150311  0.44645444    -0.12700
C4930       C  0.44225320  0.91399009  0.44758972     0.04600
C4931       C  0.44322332  0.85838859  0.43617233     0.27100
C4932       C  0.40946526  0.84739705  0.43385703    -0.13400
C4933       C  0.40844496  0.82477685  0.43400481     0.05100
C4934       C  0.44083687  0.81307670  0.43681073    -0.09400
C4935       C  0.47501812  0.82408444  0.43874573     0.06000
C4936       C  0.47627956  0.84665204  0.43833473    -0.13700
Br4937     Br  0.43640778  0.87297667  0.45773205    -0.05800
Br4938     Br  0.44472755  0.93457160  0.41790240    -0.00200
Br4939     Br  0.36189754  0.81001371  0.43100426     0.00300
Br4940     Br  0.52284085  0.86165150  0.44121216    -0.04100
Br4941     Br  0.44335112  0.92471511  0.46086170     0.00400
Br4942     Br  0.44891814  0.88217744  0.41614016    -0.03400
Br4943     Br  0.36393984  0.86344227  0.43116142    -0.04300
Br4944     Br  0.52022599  0.80827020  0.44206670    -0.00300
C4945       C  0.54535110  0.74323714  0.43653016     0.01100
C4946       C  0.56390551  0.75532189  0.42922904     0.03900
C4947       C  0.60371575  0.75498766  0.42858481    -0.12100
C4948       C  0.62507107  0.74315088  0.43538778     0.23200
C4949       C  0.60662560  0.73067900  0.44249672    -0.12700
C4950       C  0.56690805  0.73033511  0.44293016     0.04600
C4951       C  0.66696346  0.74298177  0.43486401     0.27100
C4952       C  0.68537155  0.72559710  0.43035974    -0.13400
C4953       C  0.72503080  0.72465675  0.43024933     0.05100
C4954       C  0.74660598  0.74157282  0.43430014    -0.09400
C4955       C  0.72822130  0.75901237  0.43882631     0.06000
C4956       C  0.68835839  0.75960655  0.43918129    -0.13700
Br4957     Br  0.63604530  0.71422590  0.45172091    -0.05800
Br4958     Br  0.53544150  0.77336445  0.42045277    -0.00200
Br4959     Br  0.74957562  0.69953586  0.42490697     0.00300
Br4960     Br  0.66287235  0.78315871  0.44552619    -0.04100
Br4961     Br  0.54212585  0.71139973  0.45207601     0.00400
Br4962     Br  0.62930483  0.77078557  0.41843291    -0.03400
Br4963     Br  0.65602159  0.70309733  0.42426784    -0.04300
Br4964     Br  0.75744126  0.78244766  0.44414851    -0.00300
C4965       C  0.04414236  0.74630518  0.43765261     0.01100
C4966       C  0.06368710  0.73220366  0.44394115     0.03900
C4967       C  0.10346249  0.73208370  0.44412203    -0.12100
C4968       C  0.12402368  0.74575345  0.43789263     0.23200
C4969       C  0.10462195  0.75944343  0.43140386    -0.12700
C4970       C  0.06470735  0.75984370  0.43132507     0.04600
C4971       C  0.16604746  0.74481677  0.43786657     0.27100
C4972       C  0.18764286  0.75977692  0.44324248    -0.13400
C4973       C  0.22758513  0.75866619  0.44317849     0.05100
C4974       C  0.24597315  0.74244530  0.43777152    -0.09400
C4975       C  0.22394749  0.72686790  0.43277972     0.06000
C4976       C  0.18428804  0.72831501  0.43269570    -0.13700
Br4977     Br  0.13291340  0.77772352  0.42269765    -0.05800
Br4978     Br  0.03594711  0.71253081  0.45216414    -0.00200
Br4979     Br  0.25676595  0.77992831  0.45011387     0.00300
Br4980     Br  0.15464226  0.70779072  0.42535611    -0.04100
Br4981     Br  0.03838978  0.77977440  0.42295180     0.00400
Br4982     Br  0.13002635  0.71325882  0.45296397    -0.03400
Br4983     Br  0.16220447  0.78193730  0.45055498    -0.04300
Br4984     Br  0.24762077  0.70280893  0.42625402    -0.00300
C4985       C  0.00065474  0.74036855  0.27462516     0.01100
C4986       C  0.96535038  0.73947607  0.26977844     0.03900
C4987       C  0.96390862  0.73838227  0.25958665    -0.12100
C4988       C  0.99764442  0.73702086  0.25419999     0.23200
C4989       C  0.03288409  0.73629202  0.25902336    -0.12700
C4990       C  0.03446137  0.73824959  0.26925004     0.04600
C4991       C  0.99560562  0.73679591  0.24344560     0.27100
C4992       C  0.98571285  0.71776766  0.23854441    -0.13400
C4993       C  0.98148443  0.71784515  0.22837157     0.05100
C4994       C  0.98781990  0.73690296  0.22302410    -0.09400
C4995       C  0.99718936  0.75605027  0.22799746     0.06000
C4996       C  0.00101394  0.75596539  0.23819403    -0.13700
Br4997     Br  0.07878777  0.73313946  0.25154463    -0.05800
Br4998     Br  0.91852299  0.73887803  0.27704288    -0.00200
Br4999     Br  0.96590869  0.69183350  0.22188441     0.00300
Br5000     Br  0.01443310  0.78202424  0.24501188    -0.04100
Br5001     Br  0.08278873  0.73928214  0.27577727     0.00400
Br5002     Br  0.91565361  0.73944646  0.25293408    -0.03400
Br5003     Br  0.97839665  0.69154742  0.24582621    -0.04300
Br5004     Br  0.00743458  0.78218536  0.22092479    -0.00300
C5005       C  0.94261809  0.81492517  0.31140328     0.01100
C5006       C  0.96363245  0.82443864  0.31910726     0.03900
C5007       C  0.96247753  0.84685716  0.32054635    -0.12100
C5008       C  0.94088820  0.85988166  0.31428855     0.23200
C5009       C  0.91869315  0.85048321  0.30692694    -0.12700
C5010       C  0.91879337  0.82811655  0.30561164     0.04600
C5011       C  0.94331974  0.88361000  0.31486155     0.27100
C5012       C  0.91466136  0.89550031  0.31953314    -0.13400
C5013       C  0.91311371  0.91797453  0.31840521     0.05100
C5014       C  0.94117483  0.92864498  0.31288915    -0.09400
C5015       C  0.97161366  0.91675749  0.30891849     0.06000
C5016       C  0.97212128  0.89428937  0.30970058    -0.13700
Br5017     Br  0.88885913  0.86856190  0.29842400    -0.05800
Br5018     Br  0.99546356  0.80742300  0.32755083    -0.00200
Br5019     Br  0.87054739  0.93354999  0.32361671     0.00300
Br5020     Br  0.01093309  0.87791108  0.30313548    -0.04100
Br5021     Br  0.88407839  0.81592904  0.29618538     0.00400
Br5022     Br  0.99114093  0.86005627  0.33093193    -0.03400
Br5023     Br  0.87645955  0.88067746  0.32700003    -0.04300
Br5024     Br  0.01305161  0.93111669  0.30239422    -0.00300
C5025       C  0.95228832  0.74446967  0.34794417     0.01100
C5026       C  0.91485723  0.74376925  0.35153075     0.03900
C5027       C  0.90834865  0.74442877  0.36165718    -0.12100
C5028       C  0.93913333  0.74620110  0.36815214     0.23200
C5029       C  0.97619393  0.74837820  0.36452772    -0.12700
C5030       C  0.98279898  0.74750592  0.35445040     0.04600
C5031       C  0.93319136  0.74453295  0.37880862     0.27100
C5032       C  0.92376056  0.76282499  0.38431530    -0.13400
C5033       C  0.91949176  0.76117915  0.39448775     0.05100
C5034       C  0.92607114  0.74137550  0.39922505    -0.09400
C5035       C  0.93655831  0.72324465  0.39368903     0.06000
C5036       C  0.93905628  0.72469055  0.38348613    -0.13700
Br5037     Br  0.01798377  0.75216552  0.37344775    -0.05800
Br5038     Br  0.87265874  0.74087108  0.34267566    -0.00200
Br5039     Br  0.90234929  0.78581634  0.40175494     0.00300
Br5040     Br  0.94986885  0.69940682  0.37583095    -0.04100
Br5041     Br  0.03371163  0.75126493  0.34956991     0.00400
Br5042     Br  0.85753087  0.74213259  0.36669777    -0.03400
Br5043     Br  0.91637760  0.79002473  0.37785042    -0.04300
Br5044     Br  0.94955553  0.69668655  0.40009358    -0.00300
C5045       C  0.50228449  0.73619631  0.22360739     0.01100
C5046       C  0.53635773  0.73062024  0.22859651     0.03900
C5047       C  0.53892685  0.73287553  0.23878406    -0.12100
C5048       C  0.50761660  0.74000880  0.24416803     0.23200
C5049       C  0.47352350  0.74505748  0.23936799    -0.12700
C5050       C  0.47075764  0.74319302  0.22913977     0.04600
C5051       C  0.50994784  0.74087138  0.25497152     0.27100
C5052       C  0.49984858  0.72268573  0.26049572    -0.13400
C5053       C  0.50013021  0.72364482  0.27074368     0.05100
C5054       C  0.51130025  0.74269979  0.27551149    -0.09400
C5055       C  0.52312376  0.76058027  0.26996624     0.06000
C5056       C  0.52238420  0.75967545  0.25971061    -0.13700
Br5057     Br  0.43033740  0.75409022  0.24694730    -0.05800
Br5058     Br  0.58069129  0.71988087  0.22187776    -0.00200
Br5059     Br  0.48181289  0.69947931  0.27818802     0.00300
Br5060     Br  0.53771390  0.78424880  0.25211646    -0.04100
Br5061     Br  0.42256931  0.74859228  0.22297411     0.00400
Br5062     Br  0.58550732  0.72609586  0.24554178    -0.03400
Br5063     Br  0.48466268  0.69662994  0.25394419    -0.04300
Br5064     Br  0.54023398  0.78635443  0.27644523    -0.00300
C5065       C  0.44133319  0.81086445  0.31178607     0.01100
C5066       C  0.41119833  0.82333990  0.30806997     0.03900
C5067       C  0.41192289  0.84584099  0.30899867    -0.12100
C5068       C  0.44118846  0.85592069  0.31431236     0.23200
C5069       C  0.46965444  0.84334310  0.31867969    -0.12700
C5070       C  0.47075859  0.82105742  0.31703244     0.04600
C5071       C  0.44362901  0.87975968  0.31462713     0.27100
C5072       C  0.47162467  0.89042573  0.30912712    -0.13400
C5073       C  0.47274100  0.91296756  0.30891527     0.05100
C5074       C  0.44368386  0.92507609  0.31338197    -0.09400
C5075       C  0.41645468  0.91439845  0.31920092     0.06000
C5076       C  0.41728225  0.89183786  0.32006154    -0.13700
Br5077     Br  0.50775431  0.85681789  0.32674347    -0.05800
Br5078     Br  0.36821562  0.80972034  0.30189615    -0.00200
Br5079     Br  0.51536044  0.92717906  0.30285888     0.00300
Br5080     Br  0.38167843  0.87729534  0.32847207    -0.04100
Br5081     Br  0.51492207  0.80530267  0.32109002     0.00400
Br5082     Br  0.37367125  0.86290215  0.30257806    -0.03400
Br5083     Br  0.50735638  0.87421660  0.30139512    -0.04300
Br5084     Br  0.37618091  0.93005026  0.32545695    -0.00300
C5085       C  0.63231729  0.74071880  0.31332671     0.01100
C5086       C  0.64969256  0.75367682  0.30611295     0.03900
C5087       C  0.68952748  0.75442266  0.30537869    -0.12100
C5088       C  0.71220270  0.74282421  0.31198095     0.23200
C5089       C  0.69517385  0.72967289  0.31903902    -0.12700
C5090       C  0.65552990  0.72811204  0.31955909     0.04600
C5091       C  0.75410117  0.74435672  0.31150537     0.27100
C5092       C  0.77486940  0.72916568  0.30609551    -0.13400
C5093       C  0.81451363  0.73079012  0.30553915     0.05100
C5094       C  0.83349992  0.74768302  0.31032817    -0.09400
C5095       C  0.81283133  0.76271878  0.31585708     0.06000
C5096       C  0.77319655  0.76081193  0.31658769    -0.13700
Br5097     Br  0.72660247  0.71386565  0.32806104    -0.05800
Br5098     Br  0.61974319  0.77126539  0.29746531    -0.00200
Br5099     Br  0.84309001  0.70963651  0.29835140     0.00300
Br5100     Br  0.74491162  0.78038863  0.32469069    -0.04100
Br5101     Br  0.63393648  0.70736373  0.32848062     0.00400
Br5102     Br  0.71348765  0.77142006  0.29535994    -0.03400
Br5103     Br  0.74891531  0.70597602  0.29957300    -0.04300
Br5104     Br  0.83858767  0.78648492  0.32199191    -0.00300
C5105       C  0.13126064  0.73975359  0.31201374     0.01100
C5106       C  0.14995721  0.75571389  0.30652200     0.03900
C5107       C  0.18986676  0.75589175  0.30600006    -0.12100
C5108       C  0.21121120  0.74054076  0.31119841     0.23200
C5109       C  0.19253656  0.72452882  0.31660801    -0.12700
C5110       C  0.15278601  0.72373622  0.31678340     0.04600
C5111       C  0.25331466  0.74107460  0.31103532     0.27100
C5112       C  0.27344794  0.72652682  0.30511548    -0.13400
C5113       C  0.31328851  0.72635059  0.30527723     0.05100
C5114       C  0.33329797  0.74133608  0.31104179    -0.09400
C5115       C  0.31314857  0.75565253  0.31709388     0.06000
C5116       C  0.27324617  0.75535875  0.31715814    -0.13700
Br5117     Br  0.22163929  0.70402499  0.32405157    -0.05800
Br5118     Br  0.12122815  0.77803984  0.30018701    -0.00200
Br5119     Br  0.34051789  0.70489058  0.29793134     0.00300
Br5120     Br  0.24569195  0.77460941  0.32558742    -0.04100
Br5121     Br  0.12810295  0.69996851  0.32325551     0.00400
Br5122     Br  0.21551619  0.77735098  0.29831044    -0.03400
Br5123     Br  0.24627778  0.70708676  0.29665728    -0.04300
Br5124     Br  0.34003514  0.77634097  0.32497555    -0.00300
C5125       C  0.44900077  0.73979721  0.34891947     0.01100
C5126       C  0.45735474  0.75872781  0.35416229     0.03900
C5127       C  0.45192079  0.75940906  0.36433574    -0.12100
C5128       C  0.43795563  0.74122359  0.36928247     0.23200
C5129       C  0.42814003  0.72263348  0.36397304    -0.12700
C5130       C  0.43338153  0.72200058  0.35380911     0.04600
C5131       C  0.43245985  0.74173913  0.38002603     0.27100
C5132       C  0.46288661  0.73722417  0.38636653    -0.13400
C5133       C  0.45688918  0.73636358  0.39652298     0.05100
C5134       C  0.42043124  0.74003684  0.40036503    -0.09400
C5135       C  0.39017128  0.74490469  0.39400304     0.06000
C5136       C  0.39629172  0.74596406  0.38388143    -0.13700
Br5137     Br  0.40787057  0.69793243  0.37067066    -0.05800
Br5138     Br  0.47739927  0.78350365  0.34746891    -0.00200
Br5139     Br  0.49799653  0.72871379  0.40509293     0.00300
Br5140     Br  0.35521909  0.75334814  0.37522176    -0.04100
Br5141     Br  0.41752831  0.69714095  0.34648283     0.00400
Br5142     Br  0.46398785  0.78510070  0.37156542    -0.03400
Br5143     Br  0.51262636  0.73194343  0.38108397    -0.04300
Br5144     Br  0.34023825  0.75054841  0.39913618    -0.00300
C5145       C  0.75736664  0.49132886  0.47383637     0.01100
C5146       C  0.76426001  0.47242245  0.47922920     0.03900
C5147       C  0.76229417  0.47261818  0.48947864    -0.12100
C5148       C  0.75517755  0.49194762  0.49449479     0.23200
C5149       C  0.75116391  0.51119877  0.48917012    -0.12700
C5150       C  0.75136303  0.51083419  0.47887166     0.04600
C5151       C  0.75292751  0.49190866  0.50536400     0.27100
C5152       C  0.71752748  0.49239272  0.51017228    -0.13400
C5153       C  0.71576447  0.49205144  0.52047226     0.05100
C5154       C  0.74929781  0.49039681  0.52598977    -0.09400
C5155       C  0.78447778  0.48887018  0.52111973     0.06000
C5156       C  0.78637382  0.49040442  0.51090271    -0.13700
Br5157     Br  0.74530223  0.53802870  0.49602741    -0.05800
Br5158     Br  0.77784898  0.44626545  0.47263681    -0.00200
Br5159     Br  0.66779917  0.49500850  0.52702601     0.00300
Br5160     Br  0.83499657  0.49123618  0.50446740    -0.04100
Br5161     Br  0.74050740  0.53679646  0.47172046     0.00400
Br5162     Br  0.76859214  0.44621645  0.49668441    -0.03400
Br5163     Br  0.67156304  0.49388846  0.50262038    -0.04300
Br5164     Br  0.83036385  0.48387956  0.52842513    -0.00300
C5165       C  0.68923299  0.42818464  0.43562982     0.01100
C5166       C  0.66449417  0.41973479  0.42848392     0.03900
C5167       C  0.66078462  0.39731649  0.42728969    -0.12100
C5168       C  0.68116847  0.38324713  0.43336684     0.23200
C5169       C  0.70678311  0.39160723  0.44026039    -0.12700
C5170       C  0.71125319  0.41393127  0.44126146     0.04600
C5171       C  0.67466497  0.35968446  0.43303307     0.27100
C5172       C  0.64510331  0.35063127  0.43857398    -0.13400
C5173       C  0.64332259  0.32827718  0.43991196     0.05100
C5174       C  0.67172981  0.31495834  0.43599242    -0.09400
C5175       C  0.69969866  0.32382553  0.42985611     0.06000
C5176       C  0.70077669  0.34616852  0.42826495    -0.13700
Br5177     Br  0.73487269  0.37232445  0.44859389    -0.05800
Br5178     Br  0.63377789  0.43860322  0.42073700    -0.00200
Br5179     Br  0.60128978  0.31576354  0.44684712     0.00300
Br5180     Br  0.73861601  0.35850201  0.41982781    -0.04100
Br5181     Br  0.74879274  0.42489948  0.45011831     0.00400
Br5182     Br  0.62713196  0.38572401  0.41753311    -0.03400
Br5183     Br  0.60791610  0.36895599  0.44464790    -0.04300
Br5184     Br  0.73787814  0.30559564  0.42413827    -0.00300
C5185       C  0.77405037  0.56654354  0.43801650     0.01100
C5186       C  0.75288047  0.58175514  0.43264541     0.03900
C5187       C  0.76376738  0.60357050  0.43256350    -0.12100
C5188       C  0.79537573  0.61043808  0.43802722     0.23200
C5189       C  0.81431709  0.59567559  0.44407878    -0.12700
C5190       C  0.80355959  0.57387068  0.44414784     0.04600
C5191       C  0.81022371  0.63279943  0.43705385     0.27100
C5192       C  0.83579993  0.63782414  0.42950846    -0.13400
C5193       C  0.85122735  0.65866372  0.42874619     0.05100
C5194       C  0.84071117  0.67492348  0.43543184    -0.09400
C5195       C  0.81562424  0.66962225  0.44315127     0.06000
C5196       C  0.80046487  0.64868348  0.44391441    -0.13700
Br5197     Br  0.85694208  0.60520113  0.45176773    -0.05800
Br5198     Br  0.70858999  0.57268345  0.42548138    -0.00200
Br5199     Br  0.88804486  0.66456325  0.41870708     0.00300
Br5200     Br  0.76527318  0.64169418  0.45420455    -0.04100
Br5201     Br  0.83153479  0.55408823  0.45215816     0.00400
Br5202     Br  0.73670834  0.62390102  0.42457838    -0.03400
Br5203     Br  0.84929230  0.61601359  0.42012274    -0.04300
Br5204     Br  0.79971869  0.69108623  0.45244726    -0.00300
C5205       C  0.25006133  0.49402726  0.47295060     0.01100
C5206       C  0.21478229  0.49346913  0.47788197     0.03900
C5207       C  0.21334011  0.49416428  0.48812418    -0.12100
C5208       C  0.24694177  0.49582168  0.49356498     0.23200
C5209       C  0.28202411  0.49753250  0.48869783    -0.12700
C5210       C  0.28365047  0.49651284  0.47841408     0.04600
C5211       C  0.24503559  0.49605137  0.50440747     0.27100
C5212       C  0.23666402  0.51527625  0.50935497    -0.13400
C5213       C  0.23465939  0.51554117  0.51959617     0.05100
C5214       C  0.24217686  0.49674891  0.52501185    -0.09400
C5215       C  0.24895584  0.47726897  0.52003367     0.06000
C5216       C  0.25009156  0.47692009  0.50975093    -0.13700
Br5217     Br  0.32773474  0.50135893  0.49618742    -0.05800
Br5218     Br  0.16771700  0.49290379  0.47071924    -0.00200
Br5219     Br  0.22026243  0.54160226  0.52617767     0.00300
Br5220     Br  0.25927824  0.45033980  0.50292551    -0.04100
Br5221     Br  0.33197599  0.49753739  0.47188958     0.00400
Br5222     Br  0.16516413  0.49296832  0.49479484    -0.03400
Br5223     Br  0.22863180  0.54137061  0.50205726    -0.04300
Br5224     Br  0.25904293  0.45129825  0.52724153    -0.00300
C5225       C  0.16914183  0.31541574  0.43447811     0.01100
C5226       C  0.14989337  0.33050517  0.44033760     0.03900
C5227       C  0.15561493  0.35256572  0.43884509    -0.12100
C5228       C  0.18086650  0.35963498  0.43158087     0.23200
C5229       C  0.19860727  0.34471908  0.42538842    -0.12700
C5230       C  0.19240143  0.32259928  0.42672898     0.04600
C5231       C  0.19021113  0.38274134  0.43098830     0.27100
C5232       C  0.16711813  0.39671366  0.42555617    -0.13400
C5233       C  0.17140030  0.41906981  0.42657816     0.05100
C5234       C  0.19820428  0.42734357  0.43325364    -0.09400
C5235       C  0.22379177  0.41330757  0.43789404     0.06000
C5236       C  0.21977689  0.39100923  0.43676518    -0.13700
Br5237     Br  0.23288947  0.35471200  0.41542357    -0.05800
Br5238     Br  0.11540858  0.32106330  0.45039626    -0.00200
Br5239     Br  0.13908378  0.43806716  0.41921772     0.00300
Br5240     Br  0.25340648  0.37166048  0.44352806    -0.04100
Br5241     Br  0.21805877  0.30241044  0.41830186     0.00400
Br5242     Br  0.13000114  0.37326180  0.44700338    -0.03400
Br5243     Br  0.12817736  0.38503498  0.41722377    -0.04300
Br5244     Br  0.26464393  0.42469174  0.44569812    -0.00300
C5245       C  0.08365114  0.49293937  0.43681092     0.01100
C5246       C  0.06094725  0.47482816  0.43885649     0.03900
C5247       C  0.02134439  0.47664514  0.43889591    -0.12100
C5248       C  0.00413510  0.49656307  0.43696242     0.23200
C5249       C  0.02665648  0.51463648  0.43477505    -0.12700
C5250       C  0.06643118  0.51283078  0.43467352     0.04600
C5251       C  0.96221729  0.49792738  0.43674671     0.27100
C5252       C  0.94307366  0.49357309  0.42800268    -0.13400
C5253       C  0.90331935  0.49296565  0.42781564     0.05100
C5254       C  0.88201554  0.49755012  0.43637133    -0.09400
C5255       C  0.90159994  0.50070600  0.44528772     0.06000
C5256       C  0.94157811  0.50121334  0.44540408    -0.13700
Br5257     Br  0.00286255  0.54184146  0.43206275    -0.05800
Br5258     Br  0.08391577  0.44728510  0.44147704    -0.00200
Br5259     Br  0.87891615  0.48371663  0.41588059     0.00300
Br5260     Br  0.96859347  0.50633686  0.45742120    -0.04100
Br5261     Br  0.09722693  0.53785976  0.43216749     0.00400
Br5262     Br  0.99035221  0.45178185  0.44157994    -0.03400
Br5263     Br  0.97185191  0.48796427  0.41627808    -0.04300
Br5264     Br  0.87479924  0.50372229  0.45746520    -0.00300
C5265       C  0.58326197  0.50175916  0.43647369     0.01100
C5266       C  0.56410029  0.49567786  0.42780492     0.03900
C5267       C  0.52417502  0.49546785  0.42754740    -0.12100
C5268       C  0.50321061  0.50260345  0.43564796     0.23200
C5269       C  0.52210689  0.51110842  0.44379910    -0.12700
C5270       C  0.56190156  0.51080787  0.44421870     0.04600
C5271       C  0.46118435  0.50236397  0.43540833     0.27100
C5272       C  0.44154126  0.52048179  0.43198374    -0.13400
C5273       C  0.40179207  0.52060212  0.43191051     0.05100
C5274       C  0.38130197  0.50248981  0.43522350    -0.09400
C5275       C  0.40098009  0.48429097  0.43863208     0.06000
C5276       C  0.44092111  0.48424860  0.43872027    -0.13700
Br5277     Br  0.49307604  0.52325677  0.45438610    -0.05800
Br5278     Br  0.59128512  0.48845788  0.41605700    -0.00200
Br5279     Br  0.37562165  0.54586046  0.42725645     0.00300
Br5280     Br  0.46814839  0.45919744  0.44307115    -0.04100
Br5281     Br  0.58673314  0.52458726  0.45513087     0.00400
Br5282     Br  0.49776214  0.48516474  0.41613626    -0.03400
Br5283     Br  0.46935220  0.54501650  0.42719818    -0.04300
Br5284     Br  0.37340479  0.45896374  0.44252896    -0.00300
C5285       C  0.27695137  0.56704031  0.43725624     0.01100
C5286       C  0.25847520  0.58290023  0.43165486     0.03900
C5287       C  0.26935516  0.60461983  0.43244613    -0.12100
C5288       C  0.29902138  0.61061936  0.43876781     0.23200
C5289       C  0.31594260  0.59502546  0.44479385    -0.12700
C5290       C  0.30471052  0.57333139  0.44413349     0.04600
C5291       C  0.31405952  0.63300338  0.43860799     0.27100
C5292       C  0.34300687  0.63853770  0.43199007    -0.13400
C5293       C  0.35674471  0.65976764  0.43157795     0.05100
C5294       C  0.34117758  0.67577731  0.43765472    -0.09400
C5295       C  0.31270937  0.67010380  0.44444625     0.06000
C5296       C  0.29926525  0.64877274  0.44491223    -0.13700
Br5297     Br  0.35608614  0.60335622  0.45356278    -0.05800
Br5298     Br  0.21814714  0.57481604  0.42288339    -0.00200
Br5299     Br  0.39724654  0.66694287  0.42271114     0.00300
Br5300     Br  0.25918278  0.64122199  0.45382978    -0.04100
Br5301     Br  0.32974434  0.55217818  0.45216058     0.00400
Br5302     Br  0.24471752  0.62616341  0.42459555    -0.03400
Br5303     Br  0.36266764  0.61710442  0.42318090    -0.04300
Br5304     Br  0.28981472  0.69175164  0.45261871    -0.00300
C5305       C  0.61892588  0.49469887  0.27425624     0.01100
C5306       C  0.61207391  0.47623015  0.26850860     0.03900
C5307       C  0.61722851  0.47683935  0.25832379    -0.12100
C5308       C  0.62900532  0.49593638  0.25372931     0.23200
C5309       C  0.63455297  0.51462099  0.25938045    -0.12700
C5310       C  0.62949721  0.51404426  0.26960409     0.04600
C5311       C  0.63217329  0.49672762  0.24286979     0.27100
C5312       C  0.66689758  0.49277358  0.23809085    -0.13400
C5313       C  0.66890571  0.49285928  0.22777544     0.05100
C5314       C  0.63619291  0.49714107  0.22216614    -0.09400
C5315       C  0.60148450  0.50124130  0.22706459     0.06000
C5316       C  0.59962438  0.50097932  0.23731263    -0.13700
Br5317     Br  0.64989762  0.54087163  0.25305637    -0.05800
Br5318     Br  0.59503591  0.44997125  0.27458921    -0.00200
Br5319     Br  0.71691264  0.48840333  0.22140655     0.00300
Br5320     Br  0.55216837  0.50654135  0.24387585    -0.04100
Br5321     Br  0.63943972  0.53945420  0.27724249     0.00400
Br5322     Br  0.60852585  0.45138938  0.25060033    -0.03400
Br5323     Br  0.71177918  0.48774900  0.24574719    -0.04300
Br5324     Br  0.55527170  0.50662039  0.21994475    -0.00300
C5325       C  0.68618275  0.42624918  0.31173407     0.01100
C5326       C  0.71272328  0.41400421  0.30632343     0.03900
C5327       C  0.71289711  0.39146183  0.30697205    -0.12100
C5328       C  0.68826443  0.38091626  0.31346023     0.23200
C5329       C  0.66410572  0.39306309  0.31948909    -0.12700
C5330       C  0.66247408  0.41562020  0.31853136     0.04600
C5331       C  0.68663044  0.35702633  0.31356259     0.27100
C5332       C  0.65756886  0.34632536  0.30846345    -0.13400
C5333       C  0.65694413  0.32375524  0.30806985     0.05100
C5334       C  0.68677403  0.31169674  0.31223750    -0.09400
C5335       C  0.71573453  0.32245344  0.31740581     0.06000
C5336       C  0.71500352  0.34500759  0.31829474    -0.13700
Br5337     Br  0.63286540  0.37850179  0.32895634    -0.05800
Br5338     Br  0.75065122  0.42791856  0.29833774    -0.00200
Br5339     Br  0.61446003  0.30942793  0.30198139     0.00300
Br5340     Br  0.75342792  0.35963604  0.32577835    -0.04100
Br5341     Br  0.62613300  0.43135665  0.32621419     0.00400
Br5342     Br  0.74622082  0.37487487  0.29872033    -0.03400
Br5343     Br  0.61948778  0.36269522  0.30162588    -0.04300
Br5344     Br  0.75833244  0.30677949  0.32251979    -0.00300
C5345       C  0.53412446  0.67343353  0.31363343     0.01100
C5346       C  0.51518299  0.65808283  0.31940042     0.03900
C5347       C  0.52596250  0.63635107  0.31902318    -0.12100
C5348       C  0.55536236  0.62978774  0.31275972     0.23200
C5349       C  0.57331596  0.64492010  0.30668885    -0.12700
C5350       C  0.56287553  0.66672837  0.30714344     0.04600
C5351       C  0.56783115  0.60701915  0.31270510     0.27100
C5352       C  0.59539834  0.59999628  0.31940672    -0.13400
C5353       C  0.60601806  0.57822860  0.31967347     0.05100
C5354       C  0.58972073  0.56344621  0.31307385    -0.09400
C5355       C  0.56262013  0.57061557  0.30623755     0.06000
C5356       C  0.55133221  0.59229209  0.30616583    -0.13700
Br5357     Br  0.61305048  0.63570952  0.29798565    -0.05800
Br5358     Br  0.47376313  0.66678715  0.32764166    -0.00200
Br5359     Br  0.64260959  0.56865227  0.32919435     0.00300
Br5360     Br  0.51151111  0.60168985  0.29754078    -0.04100
Br5361     Br  0.58980117  0.68747984  0.29931218     0.00400
Br5362     Br  0.50110205  0.61552473  0.32723752    -0.03400
Br5363     Br  0.61742331  0.62015729  0.32847976    -0.04300
Br5364     Br  0.53843004  0.55050861  0.29749423    -0.00300
C5365       C  0.66992249  0.49904220  0.34838702     0.01100
C5366       C  0.70557364  0.50534216  0.35201566     0.03900
C5367       C  0.71254419  0.50494609  0.36213296    -0.12100
C5368       C  0.68350134  0.49890031  0.36864522     0.23200
C5369       C  0.64785446  0.49269317  0.36500425    -0.12700
C5370       C  0.64120576  0.49255189  0.35490357     0.04600
C5371       C  0.69000934  0.49947631  0.37933775     0.27100
C5372       C  0.70819548  0.48217979  0.38401594    -0.13400
C5373       C  0.71462704  0.48286829  0.39413789     0.05100
C5374       C  0.70210699  0.50061915  0.39963736    -0.09400
C5375       C  0.68326946  0.51770323  0.39500046     0.06000
C5376       C  0.67752637  0.51723935  0.38485168    -0.13700
Br5377     Br  0.60797299  0.48463114  0.37390525    -0.05800
Br5378     Br  0.74373022  0.51606786  0.34322026    -0.00200
Br5379     Br  0.74267948  0.46014124  0.40039862     0.00300
Br5380     Br  0.65338392  0.54115218  0.37843953    -0.04100
Br5381     Br  0.59273322  0.48308389  0.34997059     0.00400
Br5382     Br  0.76158792  0.51304988  0.36712502    -0.03400
Br5383     Br  0.72483982  0.45775950  0.37649530    -0.04300
Br5384     Br  0.66529475  0.54167411  0.40260668    -0.00300
C5385       C  0.14304326  0.49970445  0.22282024     0.01100
C5386       C  0.14931346  0.51839689  0.22843806     0.03900
C5387       C  0.14569194  0.51773461  0.23864020    -0.12100
C5388       C  0.13585980  0.49839899  0.24331139     0.23200
C5389       C  0.13116607  0.47950163  0.23779095    -0.12700
C5390       C  0.13426813  0.48017746  0.22755494     0.04600
C5391       C  0.13190752  0.49789676  0.25407894     0.27100
C5392       C  0.16458076  0.49664681  0.25988258    -0.13400
C5393       C  0.16144182  0.49701990  0.27007494     0.05100
C5394       C  0.12538595  0.49728303  0.27458834    -0.09400
C5395       C  0.09263662  0.49898061  0.26877328     0.06000
C5396       C  0.09593865  0.49943424  0.25851810    -0.13700
Br5397     Br  0.12020874  0.45275974  0.24431313    -0.05800
Br5398     Br  0.16306321  0.54504589  0.22220158    -0.00200
Br5399     Br  0.20715275  0.49849910  0.27772728     0.00300
Br5400     Br  0.05129126  0.50166203  0.25050067    -0.04100
Br5401     Br  0.12310977  0.45471851  0.22006128     0.00400
Br5402     Br  0.15398006  0.54337414  0.24628360    -0.03400
Br5403     Br  0.21372722  0.49389803  0.25379585    -0.04300
Br5404     Br  0.04337634  0.49981981  0.27481500    -0.00300
C5405       C  0.18116404  0.42489458  0.31146048     0.01100
C5406       C  0.21151106  0.41335674  0.30722292     0.03900
C5407       C  0.21186031  0.39080208  0.30744726    -0.12100
C5408       C  0.18396823  0.37958690  0.31271550     0.23200
C5409       C  0.15550428  0.39109414  0.31769021    -0.12700
C5410       C  0.15334854  0.41365065  0.31681814     0.04600
C5411       C  0.18372453  0.35569137  0.31260362     0.27100
C5412       C  0.15857078  0.34472455  0.30639320    -0.13400
C5413       C  0.15851620  0.32216538  0.30610206     0.05100
C5414       C  0.18628081  0.31033082  0.31129373    -0.09400
C5415       C  0.21200630  0.32144137  0.31739079     0.06000
C5416       C  0.20971495  0.34397556  0.31830243    -0.13700
Br5417     Br  0.11917186  0.37574289  0.32554373    -0.05800
Br5418     Br  0.25396493  0.42837246  0.30149122    -0.00200
Br5419     Br  0.11888532  0.30776995  0.29884205     0.00300
Br5420     Br  0.24278734  0.35903984  0.32717889    -0.04100
Br5421     Br  0.11089767  0.42870991  0.32238819     0.00400
Br5422     Br  0.24954690  0.37519141  0.30010819    -0.03400
Br5423     Br  0.12544839  0.36072843  0.29786300    -0.04300
Br5424     Br  0.25260187  0.30641078  0.32384427    -0.00300
C5425       C  0.79045831  0.49787566  0.31093352     0.01100
C5426       C  0.81070451  0.48816301  0.31864389     0.03900
C5427       C  0.85043966  0.49021557  0.31913496    -0.12100
C5428       C  0.87025748  0.50128027  0.31176058     0.23200
C5429       C  0.85010104  0.51134256  0.30418898    -0.12700
C5430       C  0.81033943  0.51003405  0.30387547     0.04600
C5431       C  0.91236438  0.50201156  0.31184358     0.27100
C5432       C  0.93133018  0.51943740  0.31619651    -0.13400
C5433       C  0.97116994  0.51994109  0.31641155     0.05100
C5434       C  0.99237622  0.50294197  0.31225977    -0.09400
C5435       C  0.97330608  0.48581496  0.30765196     0.06000
C5436       C  0.93339876  0.48534507  0.30747236    -0.13700
Br5437     Br  0.87730265  0.52657902  0.29413077    -0.05800
Br5438     Br  0.78470831  0.47068200  0.32814073    -0.00200
Br5439     Br  0.99644898  0.54431382  0.32225473     0.00300
Br5440     Br  0.90724719  0.46164866  0.30140459    -0.04100
Br5441     Br  0.78321311  0.52566615  0.29391370     0.00400
Br5442     Br  0.87808456  0.47757891  0.32981439    -0.03400
Br5443     Br  0.90246346  0.54249685  0.32195888    -0.04300
Br5444     Br  0.00165113  0.46233730  0.30209829    -0.00300
C5445       C  0.29003018  0.49213850  0.31015837     0.01100
C5446       C  0.31017227  0.50504170  0.30344688     0.03900
C5447       C  0.34992992  0.50528367  0.30352502    -0.12100
C5448       C  0.36988982  0.49306863  0.31045250     0.23200
C5449       C  0.34991746  0.48064750  0.31734675    -0.12700
C5450       C  0.31002521  0.48011252  0.31719205     0.04600
C5451       C  0.41186309  0.49414160  0.31073558     0.27100
C5452       C  0.43393002  0.47783500  0.30641819    -0.13400
C5453       C  0.47379438  0.47894808  0.30677723     0.05100
C5454       C  0.49162718  0.49622663  0.31158202    -0.09400
C5455       C  0.46935824  0.51286869  0.31563971     0.06000
C5456       C  0.42966128  0.51183250  0.31518990    -0.13700
Br5457     Br  0.37741472  0.46423755  0.32693918    -0.05800
Br5458     Br  0.28344848  0.52328283  0.29436632    -0.00200
Br5459     Br  0.50385076  0.45641048  0.30104684     0.00300
Br5460     Br  0.39940356  0.53464021  0.32073025    -0.04100
Br5461     Br  0.28309718  0.46216286  0.32633817     0.00400
Br5462     Br  0.37728585  0.52234669  0.29410575    -0.03400
Br5463     Br  0.40931930  0.45389032  0.30012740    -0.04300
Br5464     Br  0.49295088  0.53753234  0.32167139    -0.00300
C5465       C  0.03102055  0.67500408  0.31251324     0.01100
C5466       C  0.01518197  0.65925675  0.31870764     0.03900
C5467       C  0.02625598  0.63758701  0.31782782    -0.12100
C5468       C  0.05407700  0.63160844  0.31097715     0.23200
C5469       C  0.06961082  0.64719322  0.30472144    -0.12700
C5470       C  0.05803739  0.66878193  0.30542937     0.04600
C5471       C  0.06908869  0.60927679  0.31085952     0.27100
C5472       C  0.09941273  0.60369151  0.31703507    -0.13400
C5473       C  0.11238191  0.58232096  0.31741020     0.05100
C5474       C  0.09528481  0.56638577  0.31155643    -0.09400
C5475       C  0.06641363  0.57232320  0.30492283     0.06000
C5476       C  0.05314721  0.59366548  0.30466078    -0.13700
Br5477     Br  0.10848873  0.63898610  0.29555958    -0.05800
Br5478     Br  0.97891539  0.66736723  0.32856727    -0.00200
Br5479     Br  0.15391462  0.57490017  0.32588257     0.00300
Br5480     Br  0.01194256  0.60145277  0.29613098    -0.04100
Br5481     Br  0.08246106  0.68999372  0.29730731     0.00400
Br5482     Br  0.00432886  0.61604007  0.32621319    -0.03400
Br5483     Br  0.12242828  0.62538112  0.32516999    -0.04300
Br5484     Br  0.04284905  0.55108440  0.29663209    -0.00300
C5485       C  0.17361308  0.49889382  0.34800690     0.01100
C5486       C  0.19010622  0.51658061  0.35281494     0.03900
C5487       C  0.19442738  0.51634435  0.36300286    -0.12100
C5488       C  0.18305574  0.49823394  0.36841319     0.23200
C5489       C  0.16791191  0.48018713  0.36358825    -0.12700
C5490       C  0.16286805  0.48058016  0.35340156     0.04600
C5491       C  0.18838250  0.49813274  0.37914186     0.27100
C5492       C  0.22280156  0.49077727  0.38308857    -0.13400
C5493       C  0.22980128  0.49279966  0.39313249     0.05100
C5494       C  0.20229094  0.50204249  0.39927775    -0.09400
C5495       C  0.16742003  0.50886314  0.39539901     0.06000
C5496       C  0.16041967  0.50687066  0.38532497    -0.13700
Br5497     Br  0.15379922  0.45510012  0.37098702    -0.05800
Br5498     Br  0.20805392  0.54083413  0.34539407    -0.00200
Br5499     Br  0.27714091  0.48282163  0.39851103     0.00300
Br5500     Br  0.11293569  0.51642571  0.37992555    -0.04100
Br5501     Br  0.13924769  0.45651836  0.34693462     0.00400
Br5502     Br  0.21574856  0.54090007  0.36962034    -0.03400
Br5503     Br  0.26052537  0.47824005  0.37465494    -0.04300
Br5504     Br  0.13022274  0.52184493  0.40383487    -0.00300
loop_ 
_geom_bond_atom_site_label_1 
_geom_bond_atom_site_label_2 
_geom_bond_distance 
_geom_bond_site_symmetry_2 
_ccdc_geom_bond_type 
O1           Ni7   1.924       .  S
O1           C22   1.269       .  A
O2          Ni25   1.934       .  S
O2           C11   1.272       .  A
O3           Ni7   1.902       .  S
O3          Ni25   1.911       .  S
O3          Ni19   1.922       .  S
O3           H26   0.966       .  S
C4           O21   1.281       .  A
C4           O13   1.276       .  A
C4         C5445   1.478       .  S
O5          Ni24   1.900       .  S
O5           C11   1.263       .  A
O6          Ni24   1.894       .  S
O6            C8   1.264       .  A
Ni7          O10   1.915       .  S
Ni7          O12   1.908       .  S
C8           O18   1.273       .  A
C8         C5405   1.486       .  S
O9          Ni25   1.936       .  S
O9           C15   1.284       .  A
O10          C15   1.277       .  A
C11        C5394   1.481       .  S
O12          C14   1.268       .  A
O13         Ni24   1.913       .  S
C14          O20   1.273       .  A
C14        C5474   1.484       .  S
C15        C5434   1.482   1_455  S
H16          O17   0.966       .  S
O17         Ni25   1.924       .  S
O17         Ni19   1.897       .  S
O17         Ni24   1.898       .  S
O18         Ni19   1.941       .  S
Ni19         O23   1.912       .  S
Ni19         O21   1.930       .  S
O20         Ni25   1.933       .  S
C22          O23   1.268       .  A
C22        C5485   1.476       .  S
O27         Ni33   1.918       .  S
O27          C48   1.266       .  A
O28         Ni51   1.937       .  S
O28          C37   1.275       .  A
O29         Ni33   1.902       .  S
O29         Ni51   1.913       .  S
O29         Ni45   1.926       .  S
O29          H52   0.965       .  S
C30          O47   1.280       .  A
C30          O39   1.278       .  A
C30        C5425   1.485       .  S
O31         Ni50   1.912       .  S
O31          C37   1.266       .  A
O32         Ni50   1.900       .  S
O32          C34   1.265       .  A
Ni33         O36   1.912       .  S
Ni33         O38   1.899       .  S
C34          O44   1.272       .  A
C34        C5325   1.492       .  S
O35         Ni51   1.939       .  S
O35          C41   1.282       .  A
O36          C41   1.276       .  A
C37        C5305   1.488       .  S
O38          C40   1.267       .  A
O39         Ni50   1.925       .  S
C40          O46   1.275       .  A
C40        C5354   1.478       .  S
C41        C5454   1.480       .  S
H42          O43   0.966       .  S
O43         Ni51   1.919       .  S
O43         Ni45   1.903       .  S
O43         Ni50   1.898       .  S
O44         Ni45   1.939       .  S
Ni45         O49   1.917       .  S
Ni45         O47   1.926       .  S
O46         Ni51   1.934       .  S
C48          O49   1.268       .  A
C48        C5365   1.475       .  S
O53         Ni59   1.923       .  S
O53          C74   1.268       .  A
O54         Ni77   1.934       .  S
O54          C63   1.273       .  A
O55         Ni59   1.903       .  S
O55         Ni77   1.915       .  S
O55         Ni71   1.921       .  S
O55          H78   0.966       .  S
C56          O73   1.279       .  A
C56          O65   1.276       .  A
C56        C5245   1.474       .  S
O57         Ni76   1.908       .  S
O57          C63   1.265       .  A
O58         Ni76   1.904       .  S
O58          C60   1.266       .  A
Ni59         O62   1.909       .  S
Ni59         O64   1.909       .  S
C60          O70   1.266       .  A
C60        C5234   1.476       .  S
O61         Ni77   1.935       .  S
O61          C67   1.282       .  A
O62          C67   1.274       .  A
C63        C5205   1.488       .  S
O64          C66   1.270       .  A
O65         Ni76   1.916       .  S
C66          O72   1.274       .  A
C66        C5285   1.485       .  S
C67        C5274   1.477       .  S
H68          O69   0.966       .  S
O69         Ni77   1.922       .  S
O69         Ni71   1.902       .  S
O69         Ni76   1.907       .  S
O70         Ni71   1.920       .  S
Ni71         O75   1.906       .  S
Ni71         O73   1.923       .  S
O72         Ni77   1.933       .  S
C74          O75   1.264       .  A
C74        C5494   1.472       .  S
O79         Ni85   1.926       .  S
O79         C100   1.268       .  A
O80        Ni103   1.927       .  S
O80          C89   1.272       .  A
O81         Ni85   1.914       .  S
O81        Ni103   1.917       .  S
O81         Ni97   1.914       .  S
O81         H104   0.966       .  S
C82          O99   1.277       .  A
C82          O91   1.276       .  A
C82        C5265   1.495       .  S
O83        Ni102   1.923       .  S
O83          C89   1.268       .  A
O84        Ni102   1.907       .  S
O84          C86   1.267       .  A
Ni85         O88   1.919       .  S
Ni85         O90   1.897       .  S
C86          O96   1.272       .  A
C86        C5165   1.488       .  S
O87        Ni103   1.930       .  S
O87          C93   1.278       .  A
O88          C93   1.274       .  A
C89        C5145   1.487       .  S
O90          C92   1.266       .  A
O91        Ni102   1.921       .  S
C92          O98   1.276       .  A
C92        C5185   1.491       .  S
C93        C5254   1.495       .  S
H94          O95   0.966       .  S
O95        Ni103   1.919       .  S
O95         Ni97   1.909       .  S
O95        Ni102   1.914       .  S
O96         Ni97   1.937       .  S
Ni97        O101   1.909       .  S
Ni97         O99   1.927       .  S
O98        Ni103   1.949       .  S
C100        O101   1.266       .  A
C100       C5374   1.472       .  S
O105       Ni111   1.927       .  S
O105        C126   1.271       .  A
O106       Ni129   1.919       .  S
O106        C115   1.271       .  A
O107       Ni111   1.892       .  S
O107       Ni129   1.903       .  S
O107       Ni123   1.916       .  S
O107        H130   0.961       .  S
C108        O125   1.280       .  A
C108        O117   1.277       .  A
C108       C5114   1.480       .  S
O109       Ni128   1.917       .  S
O109        C115   1.267       .  A
O110       Ni128   1.906       .  S
O110        C112   1.267       .  A
Ni111       O114   1.916       .  S
Ni111       O116   1.912       .  S
C112        O122   1.270       .  A
C112       C5065   1.483       .  S
O113       Ni129   1.933       .  S
O113        C119   1.281       .  A
O114        C119   1.276       .  A
C115       C5054   1.476       .  S
O116        C118   1.271       .  A
O117       Ni128   1.921       .  S
C118        O124   1.273       .  A
C118       C5345   1.480       .  S
C119       C5085   1.491       .  S
H120        O121   0.966       .  S
O121       Ni129   1.920       .  S
O121       Ni123   1.902       .  S
O121       Ni128   1.903       .  S
O122       Ni123   1.927       .  S
Ni123       O127   1.913       .  S
Ni123       O125   1.928       .  S
O124       Ni129   1.927       .  S
C126        O127   1.268       .  A
C126       C5125   1.477       .  S
O131       Ni137   1.921   1_655  S
O131        C152   1.269       .  A
O132       Ni155   1.921       .  S
O132        C141   1.268       .  A
O133       Ni137   1.902       .  S
O133       Ni155   1.905       .  S
O133       Ni149   1.924   1_455  S
O133        H156   0.965       .  S
C134        O151   1.278       .  A
C134        O143   1.278       .  A
C134       C5094   1.472       .  S
O135       Ni154   1.909       .  S
O135        C141   1.265   1_655  A
O136       Ni154   1.901       .  S
O136        C138   1.265       .  A
Ni137       O140   1.915       .  S
Ni137       O142   1.910       .  S
C138        O148   1.268       .  A
C138       C5005   1.491       .  S
O139       Ni155   1.934       .  S
O139        C145   1.282       .  A
O140        C145   1.277       .  A
C141       C4985   1.474       .  S
O142        C144   1.268       .  A
O143       Ni154   1.926       .  S
C144        O150   1.273       .  A
C144       C5465   1.485       .  S
C145       C5105   1.482       .  S
H146        O147   0.966       .  S
O147       Ni155   1.924   1_655  S
O147       Ni149   1.898       .  S
O147       Ni154   1.902       .  S
O148       Ni149   1.927       .  S
Ni149       O153   1.905       .  S
Ni149       O151   1.920       .  S
O150       Ni155   1.931       .  S
C152        O153   1.264       .  A
C152       C5025   1.473       .  S
O157       Ni163   1.921       .  S
O157        C178   1.269       .  A
O158       Ni181   1.939       .  S
O158        C167   1.274       .  A
O159       Ni163   1.895       .  S
O159       Ni181   1.911       .  S
O159       Ni175   1.920       .  S
O159        H182   0.964       .  S
C160        O177   1.279       .  A
C160        O169   1.277       .  A
C160       C4945   1.480       .  S
O161       Ni180   1.909       .  S
O161        C167   1.266       .  A
O162       Ni180   1.902       .  S
O162        C164   1.266       .  A
Ni163       O166   1.908       .  S
Ni163       O168   1.907       .  S
C164        O174   1.272       .  A
C164       C4934   1.480       .  S
O165       Ni181   1.945       .  S
O165        C171   1.286       .  A
O166        C171   1.276       .  A
C167       C4905   1.485       .  S
O168        C170   1.269       .  A
O169       Ni180   1.917       .  S
C170        O176   1.275       .  A
C170       C5294   1.485       .  S
C171       C4974   1.485       .  S
H172        O173   0.966       .  S
O173       Ni181   1.932       .  S
O173       Ni175   1.904       .  S
O173       Ni180   1.905       .  S
O174       Ni175   1.935       .  S
Ni175       O179   1.917       .  S
Ni175       O177   1.928       .  S
O176       Ni181   1.936       .  S
C178        O179   1.269       .  A
C178       C5134   1.479       .  S
O183       Ni189   1.919       .  S
O183        C204   1.270       .  A
O184       Ni207   1.921       .  S
O184        C193   1.270       .  A
O185       Ni189   1.896       .  S
O185       Ni207   1.901       .  S
O185       Ni201   1.919       .  S
O185        H208   0.964       .  S
C186        O203   1.281   1_455  A
C186        O195   1.277   1_455  A
C186       C4965   1.477       .  S
O187       Ni206   1.914       .  S
O187        C193   1.265       .  A
O188       Ni206   1.902       .  S
O188        C190   1.266       .  A
Ni189       O192   1.911       .  S
Ni189       O194   1.912       .  S
C190        O200   1.272       .  A
C190       C4885   1.488       .  S
O191       Ni207   1.930       .  S
O191        C197   1.281       .  A
O192        C197   1.277       .  A
C193       C4874   1.473       .  S
O194        C196   1.270       .  A
O195       Ni206   1.917       .  S
C196        O202   1.276       .  A
C196       C5194   1.496       .  S
C197       C4954   1.473       .  S
H198        O199   0.966       .  S
O199       Ni207   1.920       .  S
O199       Ni201   1.904       .  S
O199       Ni206   1.904       .  S
O200       Ni201   1.937       .  S
Ni201       O205   1.914       .  S
Ni201       O203   1.928       .  S
O202       Ni207   1.940       .  S
C204        O205   1.269       .  A
C204       C5034   1.478       .  S
O209       Ni215   1.931       .  S
O209        C230   1.272       .  A
O210       Ni233   1.939       .  S
O210        C219   1.272       .  A
O211       Ni215   1.905       .  S
O211       Ni233   1.914       .  S
O211       Ni227   1.918       .  S
O211        H234   0.965       .  S
C212        O229   1.280       .  A
C212        O221   1.277       .  A
C212       C4785   1.477       .  S
O213       Ni232   1.906       .  S
O213        C219   1.261       .  A
O214       Ni232   1.890       .  S
O214        C216   1.263       .  A
Ni215       O218   1.919       .  S
Ni215       O220   1.913       .  S
C216        O226   1.273       .  A
C216       C5414   1.488       .  S
O217       Ni233   1.929       .  S
O217        C223   1.281       .  A
O218        C223   1.277       .  A
C219       C4765   1.491       .  S
O220        C222   1.270       .  A
O221       Ni232   1.918       .  S
C222        O228   1.273       .  A
C222       C4825   1.490       .  S
C223       C4814   1.479       .  S
H224        O225   0.966       .  S
O225       Ni233   1.920       .  S
O225       Ni227   1.900       .  S
O225       Ni232   1.897       .  S
O226       Ni227   1.940       .  S
Ni227       O231   1.910       .  S
Ni227       O229   1.925       .  S
O228       Ni233   1.932       .  S
C230        O231   1.268       .  A
C230       C4854   1.485       .  S
O235       Ni241   1.921       .  S
O235        C256   1.269       .  A
O236       Ni259   1.920       .  S
O236        C245   1.269       .  A
O237       Ni241   1.905       .  S
O237       Ni259   1.904       .  S
O237       Ni253   1.921       .  S
O237        H260   0.964       .  S
C238        O255   1.280       .  A
C238        O247   1.277       .  A
C238       C4805   1.490       .  S
O239       Ni258   1.919       .  S
O239        C245   1.267       .  A
O240       Ni258   1.895       .  S
O240        C242   1.266       .  A
Ni241       O244   1.916       .  S
Ni241       O246   1.911       .  S
C242        O252   1.274       .  A
C242       C5334   1.484       .  S
O243       Ni259   1.931       .  S
O243        C249   1.281       .  A
O244        C249   1.276       .  A
C245       C4714   1.479       .  S
O246        C248   1.270       .  A
O247       Ni258   1.921       .  S
C248        O254   1.270       .  A
C248       C4725   1.483       .  S
C249       C4794   1.482       .  S
H250        O251   0.966       .  S
O251       Ni259   1.920       .  S
O251       Ni253   1.906       .  S
O251       Ni258   1.904       .  S
O252       Ni253   1.941       .  S
Ni253       O257   1.919       .  S
Ni253       O255   1.929       .  S
O254       Ni259   1.922       .  S
C256        O257   1.270       .  A
C256       C4745   1.485       .  S
O261       Ni267   1.929       .  S
O261        C282   1.270       .  A
O262       Ni285   1.928       .  S
O262        C271   1.271       .  A
O263       Ni267   1.902       .  S
O263       Ni285   1.909       .  S
O263       Ni279   1.917       .  S
O263        H286   0.966       .  S
C264        O281   1.280       .  A
C264        O273   1.276       .  A
C264       C4665   1.477       .  S
O265       Ni284   1.909       .  S
O265        C271   1.265       .  A
O266       Ni284   1.900       .  S
O266        C268   1.266       .  A
Ni267       O270   1.915       .  S
Ni267       O272   1.905       .  S
C268        O278   1.267       .  A
C268       C5225   1.476       .  S
O269       Ni285   1.940       .  S
O269        C275   1.283       .  A
O270        C275   1.276       .  A
C271       C4634   1.479       .  S
O272        C274   1.269       .  A
O273       Ni284   1.918       .  S
C274        O280   1.272       .  A
C274       C4685   1.491       .  S
C275       C4645   1.488   1_455  S
H276        O277   0.966       .  S
O277       Ni285   1.926       .  S
O277       Ni279   1.900       .  S
O277       Ni284   1.906       .  S
O278       Ni279   1.919       .  S
Ni279       O283   1.908       .  S
Ni279       O281   1.927       .  S
O280       Ni285   1.933       .  S
C282        O283   1.266       .  A
C282       C4845   1.482       .  S
O287       Ni293   1.925       .  S
O287        C308   1.270       .  A
O288       Ni311   1.931       .  S
O288        C297   1.271       .  A
O289       Ni293   1.901       .  S
O289       Ni311   1.905       .  S
O289       Ni305   1.923       .  S
O289        H312   0.966       .  S
C290        O307   1.280       .  A
C290        O299   1.275       .  A
C290       C4654   1.485       .  S
O291       Ni310   1.910       .  S
O291        C297   1.264       .  A
O292       Ni310   1.912       .  S
O292        C294   1.268       .  A
Ni293       O296   1.929       .  S
Ni293       O298   1.897       .  S
C294        O304   1.266       .  A
C294       C5174   1.476       .  S
O295       Ni311   1.927       .  S
O295        C301   1.279       .  A
O296        C301   1.278       .  A
C297       C4594   1.492       .  S
O298        C300   1.266       .  A
O299       Ni310   1.914       .  S
C300        O306   1.275       .  A
C300       C4605   1.482       .  S
C301       C4674   1.505       .  S
H302        O303   0.966       .  S
O303       Ni311   1.924       .  S
O303       Ni305   1.909       .  S
O303       Ni310   1.910       .  S
O304       Ni305   1.917       .  S
Ni305       O309   1.913       .  S
Ni305       O307   1.932       .  S
O306       Ni311   1.941       .  S
C308        O309   1.267       .  A
C308       C4754   1.477       .  S
O313       Ni319   1.920       .  S
O313        C334   1.269       .  A
O314       Ni337   1.928   1_545  S
O314        C323   1.274   1_545  A
O315       Ni319   1.895   1_565  S
O315       Ni337   1.905       .  S
O315       Ni331   1.918       .  S
O315        H338   0.965       .  S
C316        O333   1.278       .  A
C316        O325   1.278       .  A
C316       C4534   1.479       .  S
O317       Ni336   1.914       .  S
O317        C323   1.266       .  A
O318       Ni336   1.903       .  S
O318        C320   1.266       .  A
Ni319       O322   1.911   1_545  S
Ni319       O324   1.912       .  S
C320        O330   1.270       .  A
C320       C5074   1.487       .  S
O321       Ni337   1.936       .  S
O321        C327   1.283       .  A
O322        C327   1.276       .  A
C323       C4505   1.482       .  S
O324        C326   1.270       .  A
O325       Ni336   1.922       .  S
C326        O332   1.276       .  A
C326       C4834   1.489       .  S
C327       C4545   1.482       .  S
H328        O329   0.966   1_545  S
O329       Ni337   1.923       .  S
O329       Ni331   1.901       .  S
O329       Ni336   1.904       .  S
O330       Ni331   1.932       .  S
Ni331       O335   1.906       .  S
Ni331       O333   1.923       .  S
O332       Ni337   1.939   1_545  S
C334        O335   1.266   1_545  A
C334       C4565   1.480   1_545  S
O339       Ni345   1.928       .  S
O339        C360   1.270       .  A
O340       Ni363   1.924       .  S
O340        C349   1.269   1_545  A
O341       Ni345   1.901   1_565  S
O341       Ni363   1.909   1_565  S
O341       Ni357   1.918       .  S
O341        H364   0.964       .  S
C342        O359   1.279   1_455  A
C342        O351   1.277   1_455  A
C342       C4554   1.479       .  S
O343       Ni362   1.909       .  S
O343        C349   1.264       .  A
O344       Ni362   1.896       .  S
O344        C346   1.266       .  A
Ni345       O348   1.917       .  S
Ni345       O350   1.910       .  S
C346        O356   1.271       .  A
C346       C5014   1.480       .  S
O347       Ni363   1.935   1_565  S
O347        C353   1.282   1_565  A
O348        C353   1.277       .  A
C349       C4465   1.474       .  S
O350        C352   1.269       .  A
O351       Ni362   1.920       .  S
C352        O358   1.269       .  A
C352       C4734   1.477       .  S
C353       C4525   1.488       .  S
H354        O355   0.966       .  S
O355       Ni363   1.927       .  S
O355       Ni357   1.902   1_545  S
O355       Ni362   1.903   1_545  S
O356       Ni357   1.933       .  S
Ni357       O361   1.912       .  S
Ni357       O359   1.923       .  S
O358       Ni363   1.922       .  S
C360        O361   1.268   1_545  A
C360       C4494   1.479       .  S
O365       Ni371   1.919       .  S
O365        C386   1.270   1_545  A
O366       Ni389   1.913       .  S
O366        C375   1.269   1_545  A
O367       Ni371   1.894   1_565  S
O367       Ni389   1.897   1_565  S
O367       Ni383   1.920       .  S
O367        H390   0.966       .  S
C368        O385   1.283       .  A
C368        O377   1.276       .  A
C368       C4454   1.481       .  S
O369       Ni388   1.910       .  S
O369        C375   1.267       .  A
O370       Ni388   1.909       .  S
O370        C372   1.264       .  A
Ni371       O374   1.919       .  S
Ni371       O376   1.907       .  S
C372        O382   1.270       .  A
C372       C4925   1.511       .  S
O373       Ni389   1.926       .  S
O373        C379   1.280       .  A
O374        C379   1.277       .  A
C375       C4405   1.470       .  S
O376        C378   1.269       .  A
O377       Ni388   1.908       .  S
C378        O384   1.272       .  A
C378       C4614   1.484       .  S
C379       C4434   1.482       .  S
H380        O381   0.966       .  S
O381       Ni389   1.919       .  S
O381       Ni383   1.887   1_545  S
O381       Ni388   1.893   1_545  S
O382       Ni383   1.934       .  S
Ni383       O387   1.909       .  S
Ni383       O385   1.937       .  S
O384       Ni389   1.927       .  S
C386        O387   1.268       .  A
C386       C4574   1.471       .  S
O391       Ni397   1.914   1_655  S
O391        C412   1.266       .  A
O392       Ni415   1.922   1_545  S
O392        C401   1.271   1_545  A
O393       Ni397   1.896   1_565  S
O393       Ni415   1.906       .  S
O393       Ni409   1.924   1_455  S
O393        H416   0.961       .  S
C394        O411   1.282   1_565  A
C394        O403   1.277       .  A
C394       C4425   1.480   1_565  S
O395       Ni414   1.910       .  S
O395        C401   1.265   1_655  A
O396       Ni414   1.894       .  S
O396        C398   1.265       .  A
Ni397       O400   1.914   1_545  S
Ni397       O402   1.905       .  S
C398        O408   1.275       .  A
C398       C4894   1.490       .  S
O399       Ni415   1.931       .  S
O399        C405   1.280       .  A
O400        C405   1.276       .  A
C401       C4385   1.479       .  S
O402        C404   1.268       .  A
O403       Ni414   1.916       .  S
C404        O410   1.272       .  A
C404       C4694   1.475       .  S
C405       C4445   1.483       .  S
H406        O407   0.966       .  S
O407       Ni415   1.918   1_645  S
O407       Ni409   1.902   1_545  S
O407       Ni414   1.894   1_545  S
O408       Ni409   1.945       .  S
Ni409       O413   1.927       .  S
Ni409       O411   1.928   1_565  S
O410       Ni415   1.927   1_545  S
C412        O413   1.272   1_545  A
C412       C4485   1.478       .  S
O417       Ni423   1.919       .  S
O417        C438   1.267       .  A
O418       Ni441   1.916       .  S
O418        C427   1.269       .  A
O419       Ni423   1.909       .  S
O419       Ni441   1.913       .  S
O419       Ni435   1.920       .  S
O419        H442   0.966       .  S
C420        O437   1.280       .  A
C420        O429   1.277       .  A
C420       C4325   1.479       .  S
O421       Ni440   1.916       .  S
O421        C427   1.267       .  A
O422       Ni440   1.901       .  S
O422        C424   1.267       .  A
Ni423       O426   1.914       .  S
Ni423       O428   1.906       .  S
C424        O434   1.274       .  A
C424       C4345   1.488       .  S
O425       Ni441   1.930       .  S
O425        C431   1.280       .  A
O426        C431   1.275       .  A
C427       C4365   1.478       .  S
O428        C430   1.268       .  A
O429       Ni440   1.915       .  S
C430        O436   1.269       .  A
C430       C4294   1.478       .  S
C431       C4305   1.482       .  S
H432        O433   0.966       .  S
O433       Ni441   1.916       .  S
O433       Ni435   1.905       .  S
O433       Ni440   1.899       .  S
O434       Ni435   1.939       .  S
Ni435       O439   1.924       .  S
Ni435       O437   1.926       .  S
O436       Ni441   1.925       .  S
C438        O439   1.270       .  A
C438       C5214   1.483       .  S
O443       Ni449   1.905       .  S
O443        C464   1.263       .  A
O444       Ni467   1.919       .  S
O444        C453   1.271       .  A
O445       Ni449   1.903       .  S
O445       Ni467   1.903       .  S
O445       Ni461   1.931       .  S
O445        H468   0.966       .  S
C446        O463   1.285       .  A
C446        O455   1.275       .  A
C446       C4314   1.488       .  S
O447       Ni466   1.922       .  S
O447        C453   1.271       .  A
O448       Ni466   1.903       .  S
O448        C450   1.268       .  A
Ni449       O452   1.911       .  S
Ni449       O454   1.898       .  S
C450        O460   1.276       .  A
C450       C4245   1.511       .  S
O451       Ni467   1.941       .  S
O451        C457   1.284       .  A
O452        C457   1.276       .  A
C453       C4265   1.484       .  S
O454        C456   1.265       .  A
O455       Ni466   1.908       .  S
C456        O462   1.268       .  A
C456       C4225   1.476       .  S
C457       C4334   1.482       .  S
H458        O459   0.966       .  S
O459       Ni467   1.923       .  S
O459       Ni461   1.905       .  S
O459       Ni466   1.895       .  S
O460       Ni461   1.944       .  S
Ni461       O465   1.940       .  S
Ni461       O463   1.943       .  S
O462       Ni467   1.923       .  S
C464        O465   1.274       .  A
C464       C5154   1.484       .  S
O469       Ni475   1.911       .  S
O469        C490   1.264       .  A
O470       Ni493   1.909       .  S
O470        C479   1.267       .  A
O471       Ni475   1.909       .  S
O471       Ni493   1.909       .  S
O471       Ni487   1.921       .  S
O471        H494   0.966       .  S
C472        O489   1.279       .  A
C472        O481   1.278       .  A
C472       C4174   1.486       .  S
O473       Ni492   1.928       .  S
O473        C479   1.271       .  A
O474       Ni492   1.899       .  S
O474        C476   1.268       .  A
Ni475       O478   1.912       .  S
Ni475       O480   1.906       .  S
C476        O486   1.278       .  A
C476       C4214   1.486       .  S
O477       Ni493   1.937       .  S
O477        C483   1.281       .  A
O478        C483   1.275       .  A
C479       C4374   1.479       .  S
O480        C482   1.266       .  A
O481       Ni492   1.923       .  S
C482        O488   1.266       .  A
C482       C4145   1.476       .  S
C483       C4194   1.484       .  S
H484        O485   0.966       .  S
O485       Ni493   1.920       .  S
O485       Ni487   1.906       .  S
O485       Ni492   1.896       .  S
O486       Ni487   1.946       .  S
Ni487       O491   1.931       .  S
Ni487       O489   1.921       .  S
O488       Ni493   1.921       .  S
C490        O491   1.272       .  A
C490       C4125   1.486       .  S
O495       Ni501   1.905       .  S
O495        C516   1.264       .  A
O496       Ni519   1.909       .  S
O496        C505   1.269       .  A
O497       Ni501   1.903       .  S
O497       Ni519   1.900       .  S
O497       Ni513   1.925       .  S
O497        H520   0.966       .  S
C498        O515   1.280       .  A
C498        O507   1.278       .  A
C498       C4185   1.488   1_655  S
O499       Ni518   1.940       .  S
O499        C505   1.275       .  A
O500       Ni518   1.914       .  S
O500        C502   1.271       .  A
Ni501       O504   1.911       .  S
Ni501       O506   1.902       .  S
C502        O512   1.273       .  A
C502       C4114   1.505       .  S
O503       Ni519   1.930       .  S
O503        C509   1.280       .  A
O504        C509   1.276       .  A
C505       C4274   1.489       .  S
O506        C508   1.266       .  A
O507       Ni518   1.924       .  S
C508        O514   1.271       .  A
C508       C4085   1.481       .  S
C509       C4165   1.478       .  S
H510        O511   0.966       .  S
O511       Ni519   1.917       .  S
O511       Ni513   1.913       .  S
O511       Ni518   1.905       .  S
O512       Ni513   1.939       .  S
Ni513       O517   1.932       .  S
Ni513       O515   1.930       .  S
O514       Ni519   1.932       .  S
C516        O517   1.270       .  A
C516       C4065   1.481       .  S
O521       Ni527   1.906       .  S
O521        C542   1.262       .  A
O522       Ni545   1.924       .  S
O522        C531   1.272       .  A
O523       Ni527   1.901       .  S
O523       Ni545   1.904       .  S
O523       Ni539   1.925   1_455  S
O523        H546   0.966       .  S
C524        O541   1.283       .  A
C524        O533   1.276       .  A
C524       C4014   1.483       .  S
O525       Ni544   1.918   1_455  S
O525        C531   1.268       .  A
O526       Ni544   1.912       .  S
O526        C528   1.269       .  A
Ni527       O530   1.905       .  S
Ni527       O532   1.892       .  S
C528        O538   1.270       .  A
C528       C4105   1.482       .  S
O529       Ni545   1.943       .  S
O529        C535   1.284       .  A
O530        C535   1.274       .  A
C531       C4054   1.479       .  S
O532        C534   1.264       .  A
O533       Ni544   1.913       .  S
C534        O540   1.276       .  A
C534       C3985   1.489       .  S
C535       C4025   1.488       .  S
H536        O537   0.966       .  S
O537       Ni545   1.926   1_655  S
O537       Ni539   1.911       .  S
O537       Ni544   1.903       .  S
O538       Ni539   1.926       .  S
Ni539       O543   1.928       .  S
Ni539       O541   1.937       .  S
O540       Ni545   1.951       .  S
C542        O543   1.270   1_455  A
C542       C3965   1.488       .  S
O547       Ni553   1.921       .  S
O547        C568   1.268       .  A
O548       Ni571   1.911       .  S
O548        C557   1.267       .  A
O549       Ni553   1.920       .  S
O549       Ni571   1.907       .  S
O549       Ni565   1.905       .  S
O549        H572   0.966       .  S
C550        O567   1.268       .  A
C550        O559   1.273       .  A
C550       C4034   1.478       .  S
O551       Ni570   1.924       .  S
O551        C557   1.269       .  A
O552       Ni570   1.900       .  S
O552        C554   1.266       .  A
Ni553       O556   1.924       .  S
Ni553       O558   1.911       .  S
C554        O564   1.283       .  A
C554       C4205   1.503       .  S
O555       Ni571   1.925       .  S
O555        C561   1.277       .  A
O556        C561   1.276       .  A
C557       C3945   1.480       .  S
O558        C560   1.267       .  A
O559       Ni570   1.930       .  S
C560        O566   1.269       .  A
C560       C3934   1.491       .  S
C561       C4005   1.495       .  S
H562        O563   0.966       .  S
O563       Ni571   1.929       .  S
O563       Ni565   1.929       .  S
O563       Ni570   1.916       .  S
O564       Ni565   1.966       .  S
Ni565       O569   1.929       .  S
Ni565       O567   1.906       .  S
O566       Ni571   1.934       .  S
C568        O569   1.271       .  A
C568       C3905   1.491       .  S
O573       Ni579   1.903       .  S
O573        C594   1.262       .  A
O574       Ni597   1.910       .  S
O574        C583   1.268       .  A
O575       Ni579   1.906       .  S
O575       Ni597   1.903       .  S
O575       Ni591   1.922       .  S
O575        H598   0.966       .  S
C576        O593   1.277       .  A
C576        O585   1.278       .  A
C576       C3894   1.483       .  S
O577       Ni596   1.934       .  S
O577        C583   1.272       .  A
O578       Ni596   1.902       .  S
O578        C580   1.269       .  A
Ni579       O582   1.910       .  S
Ni579       O584   1.906       .  S
C580        O590   1.276       .  A
C580       C4354   1.489       .  S
O581       Ni597   1.935       .  S
O581        C587   1.282       .  A
O582        C587   1.275       .  A
C583       C4045   1.479       .  S
O584        C586   1.266       .  A
O585       Ni596   1.930       .  S
C586        O592   1.267       .  A
C586       C3854   1.475       .  S
C587       C3874   1.479   1_455  S
H588        O589   0.966       .  S
O589       Ni597   1.921       .  S
O589       Ni591   1.912       .  S
O589       Ni596   1.899       .  S
O590       Ni591   1.941       .  S
Ni591       O595   1.928       .  S
Ni591       O593   1.920       .  S
O592       Ni597   1.920       .  S
C594        O595   1.270       .  A
C594       C4625   1.487       .  S
O599       Ni605   1.906       .  S
O599        C620   1.263       .  A
O600       Ni623   1.919       .  S
O600        C609   1.270       .  A
O601       Ni605   1.910       .  S
O601       Ni623   1.908       .  S
O601       Ni617   1.927       .  S
O601        H624   0.966       .  S
C602        O619   1.281       .  A
C602        O611   1.278       .  A
C602       C3865   1.490       .  S
O603       Ni622   1.925       .  S
O603        C609   1.270       .  A
O604       Ni622   1.902       .  S
O604        C606   1.267       .  A
Ni605       O608   1.914       .  S
Ni605       O610   1.908       .  S
C606        O616   1.277       .  A
C606       C4254   1.484       .  S
O607       Ni623   1.934       .  S
O607        C613   1.282       .  A
O608        C613   1.276       .  A
C609       C3954   1.487       .  S
O610        C612   1.267       .  A
O611       Ni622   1.914       .  S
C612        O618   1.268       .  A
C612       C3825   1.481       .  S
C613       C3885   1.486       .  S
H614        O615   0.966       .  S
O615       Ni623   1.922       .  S
O615       Ni617   1.907       .  S
O615       Ni622   1.895       .  S
O616       Ni617   1.945       .  S
Ni617       O621   1.936       .  S
Ni617       O619   1.932       .  S
O618       Ni623   1.926       .  S
C620        O621   1.271       .  A
C620       C4585   1.482       .  S
O625       Ni631   1.907       .  S
O625        C646   1.264   1_445  A
O626       Ni649   1.924   1_545  S
O626        C635   1.271   1_545  A
O627       Ni631   1.902   1_565  S
O627       Ni649   1.905       .  S
O627       Ni643   1.926   1_455  S
O627        H650   0.966       .  S
C628        O645   1.282       .  A
C628        O637   1.277       .  A
C628       C3745   1.488       .  S
O629       Ni648   1.922   1_455  S
O629        C635   1.270       .  A
O630       Ni648   1.901       .  S
O630        C632   1.268       .  A
Ni631       O634   1.910       .  S
Ni631       O636   1.901       .  S
C632        O642   1.272       .  A
C632       C3794   1.490       .  S
O633       Ni649   1.936       .  S
O633        C639   1.283   1_565  A
O634        C639   1.276       .  A
C635       C3814   1.484       .  S
O636        C638   1.266       .  A
O637       Ni648   1.917       .  S
C638        O644   1.269       .  A
C638       C3845   1.478       .  S
C639       C3774   1.482       .  S
H640        O641   0.966   1_545  S
O641       Ni649   1.922   1_655  S
O641       Ni643   1.908       .  S
O641       Ni648   1.899       .  S
O642       Ni643   1.932       .  S
Ni643       O647   1.933       .  S
Ni643       O645   1.935       .  S
O644       Ni649   1.924   1_545  S
C646        O647   1.270       .  A
C646       C4394   1.482       .  S
O651       Ni657   1.898       .  S
O651        C672   1.261   1_545  A
O652       Ni675   1.912       .  S
O652        C661   1.272       .  A
O653       Ni657   1.899   1_565  S
O653       Ni675   1.903       .  S
O653       Ni669   1.932       .  S
O653        H676   0.966       .  S
C654        O671   1.281       .  A
C654        O663   1.279       .  A
C654       C3765   1.479       .  S
O655       Ni674   1.926       .  S
O655        C661   1.272       .  A
O656       Ni674   1.912       .  S
O656        C658   1.270       .  A
Ni657       O660   1.906   1_545  S
Ni657       O662   1.902       .  S
C658        O668   1.271       .  A
C658       C3705   1.495       .  S
O659       Ni675   1.945       .  S
O659        C665   1.283       .  A
O660        C665   1.274       .  A
C661       C3725   1.479       .  S
O662        C664   1.266       .  A
O663       Ni674   1.924       .  S
C664        O670   1.272       .  A
C664       C3834   1.481       .  S
C665       C3754   1.487       .  S
H666        O667   0.966   1_545  S
O667       Ni675   1.921       .  S
O667       Ni669   1.901       .  S
O667       Ni674   1.894       .  S
O668       Ni669   1.931       .  S
Ni669       O673   1.922       .  S
Ni669       O671   1.926       .  S
O670       Ni675   1.935   1_545  S
C672        O673   1.266       .  A
C672       C4414   1.469       .  S
O677       Ni683   1.916       .  S
O677        C698   1.268       .  A
O678       Ni701   1.915   1_545  S
O678        C687   1.267   1_545  A
O679       Ni683   1.922   1_565  S
O679       Ni701   1.918       .  S
O679       Ni695   1.925       .  S
O679        H702   0.966       .  S
C680        O697   1.278   1_565  A
C680        O689   1.276       .  A
C680       C3665   1.487   1_565  S
O681       Ni700   1.928       .  S
O681        C687   1.269       .  A
O682       Ni700   1.904       .  S
O682        C684   1.268       .  A
Ni683       O686   1.929       .  S
Ni683       O688   1.903       .  S
C684        O694   1.275       .  A
C684       C3685   1.491       .  S
O685       Ni701   1.912       .  S
O685        C691   1.270   1_455  A
O686        C691   1.272   1_445  A
C687       C3805   1.481       .  S
O688        C690   1.267       .  A
O689       Ni700   1.918       .  S
C690        O696   1.277       .  A
C690       C3994   1.486       .  S
C691       C3645   1.484       .  S
H692        O693   0.966       .  S
O693       Ni701   1.907   1_545  S
O693       Ni695   1.911   1_545  S
O693       Ni700   1.913   1_545  S
O694       Ni695   1.944       .  S
Ni695       O699   1.920       .  S
Ni695       O697   1.926   1_565  S
O696       Ni701   1.953   1_545  S
C698        O699   1.271   1_545  A
C698       C3625   1.475   1_545  S
O703       Ni709   1.907       .  S
O703        C724   1.264       .  A
O704       Ni727   1.912   1_545  S
O704        C713   1.269   1_545  A
O705       Ni709   1.902   1_565  S
O705       Ni727   1.901       .  S
O705       Ni721   1.929       .  S
O705        H728   0.966       .  S
C706        O723   1.284       .  A
C706        O715   1.278       .  A
C706       C3654   1.482       .  S
O707       Ni726   1.924       .  S
O707        C713   1.270       .  A
O708       Ni726   1.908       .  S
O708        C710   1.269       .  A
Ni709       O712   1.916       .  S
Ni709       O714   1.898       .  S
C710        O720   1.273       .  A
C710       C3605   1.483       .  S
O711       Ni727   1.931       .  S
O711        C717   1.281   1_565  A
O712        C717   1.276       .  A
C713       C3734   1.472       .  S
O714        C716   1.266       .  A
O715       Ni726   1.914       .  S
C716        O722   1.272       .  A
C716       C3925   1.485       .  S
C717       C3674   1.481       .  S
H718        O719   0.966       .  S
O719       Ni727   1.921   1_545  S
O719       Ni721   1.903   1_545  S
O719       Ni726   1.892   1_545  S
O720       Ni721   1.930       .  S
Ni721       O725   1.928       .  S
Ni721       O723   1.940       .  S
O722       Ni727   1.936   1_545  S
C724        O725   1.270   1_545  A
C724       C3585   1.479   1_545  S
O729       Ni735   1.921       .  S
O729        C750   1.268       .  A
O730       Ni753   1.917       .  S
O730        C739   1.267       .  A
O731       Ni735   1.918       .  S
O731       Ni753   1.921       .  S
O731       Ni747   1.923       .  S
O731        H754   0.965       .  S
C732        O749   1.279       .  A
C732        O741   1.275       .  A
C732       C3525   1.483       .  S
O733       Ni752   1.928       .  S
O733        C739   1.270       .  A
O734       Ni752   1.912       .  S
O734        C736   1.270       .  A
Ni735       O738   1.921       .  S
Ni735       O740   1.899       .  S
C736        O746   1.270       .  A
C736       C3714   1.486       .  S
O737       Ni753   1.924       .  S
O737        C743   1.275       .  A
O738        C743   1.273       .  A
C739       C3565   1.484       .  S
O740        C742   1.266       .  A
O741       Ni752   1.921       .  S
C742        O748   1.270       .  A
C742       C4285   1.473       .  S
C743       C3554   1.489       .  S
H744        O745   0.966       .  S
O745       Ni753   1.915       .  S
O745       Ni747   1.912       .  S
O745       Ni752   1.913       .  S
O746       Ni747   1.927       .  S
Ni747       O751   1.921       .  S
Ni747       O749   1.925       .  S
O748       Ni753   1.931       .  S
C750        O751   1.269       .  A
C750       C4914   1.486       .  S
O755       Ni761   1.913       .  S
O755        C776   1.263       .  A
O756       Ni779   1.917       .  S
O756        C765   1.269       .  A
O757       Ni761   1.900       .  S
O757       Ni779   1.904       .  S
O757       Ni773   1.921       .  S
O757        H780   0.966       .  S
C758        O775   1.281       .  A
C758        O767   1.276       .  A
C758       C3545   1.481   1_655  S
O759       Ni778   1.927       .  S
O759        C765   1.271       .  A
O760       Ni778   1.905       .  S
O760        C762   1.270       .  A
Ni761       O764   1.918       .  S
Ni761       O766   1.898       .  S
C762        O772   1.272       .  A
C762       C3785   1.476       .  S
O763       Ni779   1.934       .  S
O763        C769   1.282       .  A
O764        C769   1.278       .  A
C765       C3514   1.485       .  S
O766        C768   1.265       .  A
O767       Ni778   1.913       .  S
C768        O774   1.267       .  A
C768       C4234   1.470       .  S
C769       C3534   1.483       .  S
H770        O771   0.966       .  S
O771       Ni779   1.919       .  S
O771       Ni773   1.912       .  S
O771       Ni778   1.896       .  S
O772       Ni773   1.925       .  S
Ni773       O777   1.937       .  S
Ni773       O775   1.932       .  S
O774       Ni779   1.919       .  S
C776        O777   1.272       .  A
C776       C4865   1.495       .  S
O781       Ni787   1.910       .  S
O781        C802   1.263       .  A
O782       Ni805   1.923       .  S
O782        C791   1.270       .  A
O783       Ni787   1.910       .  S
O783       Ni805   1.915       .  S
O783       Ni799   1.920       .  S
O783        H806   0.966       .  S
C784        O801   1.276       .  A
C784        O793   1.277       .  A
C784       C3485   1.464       .  S
O785       Ni804   1.924       .  S
O785        C791   1.270       .  A
O786       Ni804   1.904       .  S
O786        C788   1.269       .  A
Ni787       O790   1.911       .  S
Ni787       O792   1.909       .  S
C788        O798   1.279       .  A
C788       C3694   1.497       .  S
O789       Ni805   1.933       .  S
O789        C795   1.281       .  A
O790        C795   1.275       .  A
C791       C3574   1.485       .  S
O792        C794   1.266       .  A
O793       Ni804   1.920       .  S
C794        O800   1.267       .  A
C794       C4154   1.477       .  S
C795       C3474   1.479       .  S
H796        O797   0.966       .  S
O797       Ni805   1.915       .  S
O797       Ni799   1.912       .  S
O797       Ni804   1.895       .  S
O798       Ni799   1.952       .  S
Ni799       O803   1.937       .  S
Ni799       O801   1.910       .  S
O800       Ni805   1.923       .  S
C802        O803   1.272       .  A
C802       C3445   1.502       .  S
O807       Ni813   1.909       .  S
O807        C828   1.264       .  A
O808       Ni831   1.906       .  S
O808        C817   1.268       .  A
O809       Ni813   1.907       .  S
O809       Ni831   1.905       .  S
O809       Ni825   1.919       .  S
O809        H832   0.966       .  S
C810        O827   1.277       .  A
C810        O819   1.278       .  A
C810       C3465   1.502       .  S
O811       Ni830   1.939       .  S
O811        C817   1.274       .  A
O812       Ni830   1.907       .  S
O812        C814   1.270       .  A
Ni813       O816   1.909       .  S
Ni813       O818   1.910       .  S
C814        O824   1.274       .  A
C814       C3614   1.490       .  S
O815       Ni831   1.937       .  S
O815        C821   1.282       .  A
O816        C821   1.274       .  A
C817       C3505   1.482       .  S
O818        C820   1.268       .  A
O819       Ni830   1.931       .  S
C820        O826   1.267       .  A
C820       C4094   1.476       .  S
C821       C3494   1.486       .  S
H822        O823   0.966       .  S
O823       Ni831   1.921       .  S
O823       Ni825   1.911       .  S
O823       Ni830   1.907       .  S
O824       Ni825   1.936       .  S
Ni825       O829   1.923       .  S
Ni825       O827   1.928       .  S
O826       Ni831   1.920       .  S
C828        O829   1.268       .  A
C828       C3425   1.476       .  S
O833       Ni839   1.929       .  S
O833        C854   1.269       .  A
O834       Ni857   1.928       .  S
O834        C843   1.273       .  A
O835       Ni839   1.898       .  S
O835       Ni857   1.905       .  S
O835       Ni851   1.913       .  S
O835        H858   0.966       .  S
C836        O853   1.276       .  A
C836        O845   1.277       .  A
C836       C3374   1.478       .  S
O837       Ni856   1.915       .  S
O837        C843   1.267       .  A
O838       Ni856   1.903       .  S
O838        C840   1.267       .  A
Ni839       O842   1.917       .  S
Ni839       O844   1.902       .  S
C840        O850   1.270       .  A
C840       C3325   1.480       .  S
O841       Ni857   1.931       .  S
O841        C847   1.283       .  A
O842        C847   1.278       .  A
C843       C3305   1.492       .  S
O844        C846   1.268       .  A
O845       Ni856   1.924       .  S
C846        O852   1.273       .  A
C846       C3394   1.478       .  S
C847       C3354   1.482       .  S
H848        O849   0.966       .  S
O849       Ni857   1.924       .  S
O849       Ni851   1.905       .  S
O849       Ni856   1.907       .  S
O850       Ni851   1.930       .  S
Ni851       O855   1.907       .  S
Ni851       O853   1.918       .  S
O852       Ni857   1.929       .  S
C854        O855   1.267       .  A
C854       C3405   1.472       .  S
O859       Ni865   1.917   1_655  S
O859        C880   1.267       .  A
O860       Ni883   1.929       .  S
O860        C869   1.273       .  A
O861       Ni865   1.901       .  S
O861       Ni883   1.904       .  S
O861       Ni877   1.920   1_455  S
O861        H884   0.964       .  S
C862        O879   1.278       .  A
C862        O871   1.277       .  A
C862       C3345   1.482       .  S
O863       Ni882   1.910       .  S
O863        C869   1.265   1_655  A
O864       Ni882   1.901       .  S
O864        C866   1.266       .  A
Ni865       O868   1.913       .  S
Ni865       O870   1.896       .  S
C866        O876   1.271       .  A
C866       C3245   1.488       .  S
O867       Ni883   1.942       .  S
O867        C873   1.283       .  A
O868        C873   1.275       .  A
C869       C3225   1.484       .  S
O870        C872   1.266       .  A
O871       Ni882   1.921       .  S
C872        O878   1.277       .  A
C872       C3265   1.491       .  S
C873       C3365   1.501       .  S
H874        O875   0.966       .  S
O875       Ni883   1.928   1_655  S
O875       Ni877   1.904       .  S
O875       Ni882   1.906       .  S
O876       Ni877   1.933       .  S
Ni877       O881   1.910       .  S
Ni877       O879   1.924       .  S
O878       Ni883   1.947       .  S
C880        O881   1.266       .  A
C880       C3294   1.471       .  S
O885       Ni891   1.918       .  S
O885        C906   1.265       .  A
O886       Ni909   1.931       .  S
O886        C895   1.273       .  A
O887       Ni891   1.906       .  S
O887       Ni909   1.922       .  S
O887       Ni903   1.933       .  S
O887        H910   0.966       .  S
C888        O905   1.282       .  A
C888        O897   1.280       .  A
C888       C3165   1.494       .  S
O889       Ni908   1.919       .  S
O889        C895   1.268       .  A
O890       Ni908   1.901       .  S
O890        C892   1.265       .  A
Ni891       O894   1.910       .  S
Ni891       O896   1.896       .  S
C892        O902   1.271       .  A
C892       C3145   1.476       .  S
O893       Ni909   1.940       .  S
O893        C899   1.280       .  A
O894        C899   1.273       .  A
C895       C4134   1.492       .  S
O896        C898   1.267       .  A
O897       Ni908   1.928       .  S
C898        O904   1.271       .  A
C898       C3205   1.469       .  S
C899       C3185   1.481       .  S
H900        O901   0.966       .  S
O901       Ni909   1.915       .  S
O901       Ni903   1.899       .  S
O901       Ni908   1.896       .  S
O902       Ni903   1.937       .  S
Ni903       O907   1.922       .  S
Ni903       O905   1.933       .  S
O904       Ni909   1.923       .  S
C906        O907   1.270       .  A
C906       C3414   1.476       .  S
O911       Ni917   1.926       .  S
O911        C932   1.269       .  A
O912       Ni935   1.932       .  S
O912        C921   1.272       .  A
O913       Ni917   1.902       .  S
O913       Ni935   1.909       .  S
O913       Ni929   1.923       .  S
O913        H936   0.964       .  S
C914        O931   1.281       .  A
C914        O923   1.277       .  A
C914       C3194   1.486   1_655  S
O915       Ni934   1.901       .  S
O915        C921   1.263       .  A
O916       Ni934   1.902       .  S
O916        C918   1.265       .  A
Ni917       O920   1.918       .  S
Ni917       O922   1.904       .  S
C918        O928   1.270       .  A
C918       C3105   1.486       .  S
O919       Ni935   1.936       .  S
O919        C925   1.283       .  A
O920        C925   1.277       .  A
C921       C4074   1.485       .  S
O922        C924   1.269       .  A
O923       Ni934   1.917       .  S
C924        O930   1.274       .  A
C924       C3125   1.484       .  S
C925       C3174   1.482       .  S
H926        O927   0.966       .  S
O927       Ni935   1.926       .  S
O927       Ni929   1.895       .  S
O927       Ni934   1.903       .  S
O928       Ni929   1.936       .  S
Ni929       O933   1.904       .  S
Ni929       O931   1.930       .  S
O930       Ni935   1.933       .  S
C932        O933   1.265       .  A
C932       C3285   1.474       .  S
O937       Ni943   1.925       .  S
O937        C958   1.270       .  A
O938       Ni961   1.923       .  S
O938        C947   1.271       .  A
O939       Ni943   1.900       .  S
O939       Ni961   1.909       .  S
O939       Ni955   1.923       .  S
O939        H962   0.964       .  S
C940        O957   1.283       .  A
C940        O949   1.277       .  A
C940       C3065   1.493       .  S
O941       Ni960   1.918       .  S
O941        C947   1.267       .  A
O942       Ni960   1.903       .  S
O942        C944   1.266       .  A
Ni943       O946   1.918       .  S
Ni943       O948   1.911       .  S
C944        O954   1.274       .  A
C944       C3034   1.488       .  S
O945       Ni961   1.927       .  S
O945        C951   1.280       .  A
O946        C951   1.277       .  A
C947       C3005   1.484       .  S
O948        C950   1.270       .  A
O949       Ni960   1.919       .  S
C950        O956   1.276       .  A
C950       C3274   1.489       .  S
C951       C3045   1.485       .  S
H952        O953   0.966       .  S
O953       Ni961   1.922       .  S
O953       Ni955   1.907       .  S
O953       Ni960   1.907       .  S
O954       Ni955   1.943       .  S
Ni955       O959   1.925       .  S
Ni955       O957   1.935       .  S
O956       Ni961   1.941       .  S
C958        O959   1.272       .  A
C958       C3085   1.488       .  S
O963       Ni969   1.928       .  S
O963        C984   1.270       .  A
O964       Ni987   1.935       .  S
O964        C973   1.273       .  A
O965       Ni969   1.904       .  S
O965       Ni987   1.914       .  S
O965       Ni981   1.922       .  S
O965        H988   0.941       .  S
C966        O983   1.280       .  A
C966        O975   1.278       .  A
C966       C3054   1.479       .  S
O967       Ni986   1.911       .  S
O967        C973   1.264       .  A
O968       Ni986   1.900       .  S
O968        C970   1.265       .  A
Ni969       O972   1.918       .  S
Ni969       O974   1.905       .  S
C970        O980   1.270       .  A
C970       C2965   1.487       .  S
O971       Ni987   1.926       .  S
O971        C977   1.280       .  A
O972        C977   1.276       .  A
C973       C2945   1.488       .  S
O974        C976   1.270       .  A
O975       Ni986   1.924       .  S
C976        O982   1.274       .  A
C976       C3385   1.481       .  S
C977       C3074   1.480       .  S
H978        O979   0.967       .  S
O979       Ni987   1.921       .  S
O979       Ni981   1.897       .  S
O979       Ni986   1.900       .  S
O980       Ni981   1.934       .  S
Ni981       O985   1.898       .  S
Ni981       O983   1.928       .  S
O982       Ni987   1.934       .  S
C984        O985   1.265       .  A
C984       C2985   1.479       .  S
O989       Ni995   1.923       .  S
O989       C1010   1.268       .  A
O990      Ni1013   1.939       .  S
O990        C999   1.268       .  A
O991       Ni995   1.910       .  S
O991      Ni1013   1.916       .  S
O991      Ni1007   1.919       .  S
O991       H1014   0.964       .  S
C992       O1009   1.279       .  A
C992       O1001   1.276       .  A
C992       C2914   1.478       .  S
O993      Ni1012   1.900       .  S
O993        C999   1.259       .  A
O994      Ni1012   1.898       .  S
O994        C996   1.265       .  A
Ni995       O998   1.922       .  S
Ni995      O1000   1.896       .  S
C996       O1006   1.271       .  A
C996       C2885   1.496       .  S
O997      Ni1013   1.930       .  S
O997       C1003   1.281       .  A
O998       C1003   1.275       .  A
C999       C3454   1.479       .  S
O1000      C1002   1.264       .  A
O1001     Ni1012   1.918       .  S
C1002      O1008   1.269       .  A
C1002      C3214   1.470       .  S
C1003      C2925   1.500       .  S
H1004      O1005   0.966       .  S
O1005     Ni1013   1.930       .  S
O1005     Ni1007   1.912       .  S
O1005     Ni1012   1.913       .  S
O1006     Ni1007   1.934       .  S
Ni1007     O1011   1.922       .  S
Ni1007     O1009   1.925       .  S
O1008     Ni1013   1.928       .  S
C1010      O1011   1.269       .  A
C1010      C3094   1.483       .  S
O1015     Ni1021   1.914       .  S
O1015      C1036   1.267       .  A
O1016     Ni1039   1.928       .  S
O1016      C1025   1.273       .  A
O1017     Ni1021   1.889       .  S
O1017     Ni1039   1.903       .  S
O1017     Ni1033   1.920       .  S
O1017      H1040   0.966       .  S
C1018      O1035   1.280       .  A
C1018      O1027   1.277       .  A
C1018      C2934   1.477       .  S
O1019     Ni1038   1.911       .  S
O1019      C1025   1.265       .  A
O1020     Ni1038   1.896       .  S
O1020      C1022   1.266       .  A
Ni1021     O1024   1.907       .  S
Ni1021     O1026   1.904       .  S
C1022      O1032   1.273       .  A
C1022      C2865   1.483       .  S
O1023     Ni1039   1.949       .  S
O1023      C1029   1.286       .  A
O1024      C1029   1.276       .  A
C1025      C3434   1.484       .  S
O1026      C1028   1.267       .  A
O1027     Ni1038   1.919       .  S
C1028      O1034   1.272       .  A
C1028      C3134   1.480       .  S
C1029      C2905   1.487       .  S
H1030      O1031   0.966       .  S
O1031     Ni1039   1.928       .  S
O1031     Ni1033   1.896       .  S
O1031     Ni1038   1.893       .  S
O1032     Ni1033   1.937       .  S
Ni1033     O1037   1.913       .  S
Ni1033     O1035   1.931       .  S
O1034     Ni1039   1.929       .  S
C1036      O1037   1.269       .  A
C1036      C2994   1.471       .  S
O1041     Ni1047   1.933       .  S
O1041      C1062   1.272       .  A
O1042     Ni1065   1.933       .  S
O1042      C1051   1.273       .  A
O1043     Ni1047   1.904       .  S
O1043     Ni1065   1.919       .  S
O1043     Ni1059   1.917       .  S
O1043      H1066   0.966       .  S
C1044      O1061   1.277       .  A
C1044      O1053   1.279       .  A
C1044      C2785   1.494       .  S
O1045     Ni1064   1.912       .  S
O1045      C1051   1.264       .  A
O1046     Ni1064   1.900       .  S
O1046      C1048   1.264       .  A
Ni1047     O1050   1.913       .  S
Ni1047     O1052   1.917       .  S
C1048      O1058   1.269       .  A
C1048      C3334   1.485       .  S
O1049     Ni1065   1.930       .  S
O1049      C1055   1.280       .  A
O1050      C1055   1.275       .  A
C1051      C2774   1.488       .  S
O1052      C1054   1.272       .  A
O1053     Ni1064   1.928       .  S
C1054      O1060   1.277       .  A
C1054      C2834   1.493       .  S
C1055      C2805   1.484       .  S
H1056      O1057   0.966       .  S
O1057     Ni1065   1.921       .  S
O1057     Ni1059   1.896       .  S
O1057     Ni1064   1.909       .  S
O1058     Ni1059   1.936       .  S
Ni1059     O1063   1.898       .  S
Ni1059     O1061   1.921       .  S
O1060     Ni1065   1.944       .  S
C1062      O1063   1.263       .  A
C1062      C2845   1.482       .  S
O1067     Ni1073   1.927       .  S
O1067      C1088   1.271       .  A
O1068     Ni1091   1.953       .  S
O1068      C1077   1.276       .  A
O1069     Ni1073   1.901       .  S
O1069     Ni1091   1.917       .  S
O1069     Ni1085   1.923       .  S
O1069      H1092   0.965       .  S
C1070      O1087   1.281   1_455  A
C1070      O1079   1.276   1_455  A
C1070      C2814   1.478       .  S
O1071     Ni1090   1.900       .  S
O1071      C1077   1.260       .  A
O1072     Ni1090   1.889       .  S
O1072      C1074   1.262       .  A
Ni1073     O1076   1.913       .  S
Ni1073     O1078   1.913       .  S
C1074      O1084   1.271       .  A
C1074      C3254   1.484       .  S
O1075     Ni1091   1.938       .  S
O1075      C1081   1.284       .  A
O1076      C1081   1.276       .  A
C1077      C2705   1.499       .  S
O1078      C1080   1.271       .  A
O1079     Ni1090   1.914       .  S
C1080      O1086   1.277       .  A
C1080      C2734   1.492       .  S
C1081      C2794   1.481       .  S
H1082      O1083   0.966       .  S
O1083     Ni1091   1.925       .  S
O1083     Ni1085   1.898       .  S
O1083     Ni1090   1.900       .  S
O1084     Ni1085   1.939       .  S
Ni1085     O1089   1.910       .  S
Ni1085     O1087   1.926       .  S
O1086     Ni1091   1.939       .  S
C1088      O1089   1.267       .  A
C1088      C2745   1.493       .  S
O1093     Ni1099   1.926       .  S
O1093      C1114   1.271       .  A
O1094     Ni1117   1.921       .  S
O1094      C1103   1.268       .  A
O1095     Ni1099   1.900       .  S
O1095     Ni1117   1.908       .  S
O1095     Ni1111   1.927       .  S
O1095      H1118   0.966       .  S
C1096      O1113   1.284       .  A
C1096      O1105   1.275       .  A
C1096      C2665   1.477       .  S
O1097     Ni1116   1.906       .  S
O1097      C1103   1.266       .  A
O1098     Ni1116   1.908       .  S
O1098      C1100   1.268       .  A
Ni1099     O1102   1.919       .  S
Ni1099     O1104   1.905       .  S
C1100      O1110   1.271       .  A
C1100      C3154   1.495       .  S
O1101     Ni1117   1.930       .  S
O1101      C1107   1.279       .  A
O1102      C1107   1.277       .  A
C1103      C3914   1.474       .  S
O1104      C1106   1.269       .  A
O1105     Ni1116   1.905       .  S
C1106      O1112   1.272       .  A
C1106      C2685   1.482       .  S
C1107      C2645   1.481       .  S
H1108      O1109   0.966       .  S
O1109     Ni1117   1.921       .  S
O1109     Ni1111   1.896       .  S
O1109     Ni1116   1.901       .  S
O1110     Ni1111   1.933       .  S
Ni1111     O1115   1.916       .  S
Ni1111     O1113   1.940       .  S
O1112     Ni1117   1.929       .  S
C1114      O1115   1.270       .  A
C1114      C2854   1.481       .  S
O1119     Ni1125   1.920   1_655  S
O1119      C1140   1.268       .  A
O1120     Ni1143   1.915       .  S
O1120      C1129   1.267       .  A
O1121     Ni1125   1.909       .  S
O1121     Ni1143   1.907       .  S
O1121     Ni1137   1.930   1_455  S
O1121      H1144   0.966       .  S
C1122      O1139   1.284       .  A
C1122      O1131   1.276       .  A
C1122      C2654   1.481       .  S
O1123     Ni1142   1.916       .  S
O1123      C1129   1.266   1_655  A
O1124     Ni1142   1.906       .  S
O1124      C1126   1.267       .  A
Ni1125     O1128   1.921       .  S
Ni1125     O1130   1.902       .  S
C1126      O1136   1.269       .  A
C1126      C3114   1.493       .  S
O1127     Ni1143   1.924       .  S
O1127      C1133   1.276       .  A
O1128      C1133   1.277       .  A
C1129      C3974   1.479       .  S
O1130      C1132   1.266       .  A
O1131     Ni1142   1.916       .  S
C1132      O1138   1.275       .  A
C1132      C2634   1.482       .  S
C1133      C2674   1.495       .  S
H1134      O1135   0.966       .  S
O1135     Ni1143   1.918   1_655  S
O1135     Ni1137   1.909       .  S
O1135     Ni1142   1.909       .  S
O1136     Ni1137   1.931       .  S
Ni1137     O1141   1.919       .  S
Ni1137     O1139   1.936       .  S
O1138     Ni1143   1.945       .  S
C1140      O1141   1.270       .  A
C1140      C2754   1.482       .  S
O1145     Ni1151   1.914       .  S
O1145      C1166   1.267       .  A
O1146     Ni1169   1.924       .  S
O1146      C1155   1.270   1_545  A
O1147     Ni1151   1.891   1_565  S
O1147     Ni1169   1.903   1_565  S
O1147     Ni1163   1.926       .  S
O1147      H1170   0.965       .  S
C1148      O1165   1.282   1_565  A
C1148      O1157   1.278       .  A
C1148      C2574   1.483       .  S
O1149     Ni1168   1.909       .  S
O1149      C1155   1.264       .  A
O1150     Ni1168   1.900       .  S
O1150      C1152   1.265       .  A
Ni1151     O1154   1.912   1_545  S
Ni1151     O1156   1.912       .  S
C1152      O1162   1.272       .  A
C1152      C3025   1.496       .  S
O1153     Ni1169   1.936       .  S
O1153      C1159   1.282   1_545  A
O1154      C1159   1.277       .  A
C1155      C2554   1.470   1_565  S
O1156      C1158   1.269       .  A
O1157     Ni1168   1.925       .  S
C1158      O1164   1.277       .  A
C1158      C2825   1.490       .  S
C1159      C2585   1.480       .  S
H1160      O1161   0.966       .  S
O1161     Ni1169   1.925       .  S
O1161     Ni1163   1.902   1_545  S
O1161     Ni1168   1.900   1_545  S
O1162     Ni1163   1.942       .  S
Ni1163     O1167   1.918       .  S
Ni1163     O1165   1.928   1_565  S
O1164     Ni1169   1.943       .  S
C1166      O1167   1.270   1_545  A
C1166      C2614   1.474       .  S
O1171     Ni1177   1.924       .  S
O1171      C1192   1.270       .  A
O1172     Ni1195   1.928       .  S
O1172      C1181   1.271   1_545  A
O1173     Ni1177   1.902   1_565  S
O1173     Ni1195   1.911   1_565  S
O1173     Ni1189   1.932       .  S
O1173      H1196   0.965       .  S
C1174      O1191   1.284       .  A
C1174      O1183   1.276       .  A
C1174      C2594   1.476       .  S
O1175     Ni1194   1.907       .  S
O1175      C1181   1.263       .  A
O1176     Ni1194   1.897       .  S
O1176      C1178   1.265       .  A
Ni1177     O1180   1.919       .  S
Ni1177     O1182   1.910       .  S
C1178      O1188   1.270       .  A
C1178      C2974   1.490       .  S
O1179     Ni1195   1.932       .  S
O1179      C1185   1.280       .  A
O1180      C1185   1.277       .  A
C1181      C2514   1.485       .  S
O1182      C1184   1.270       .  A
O1183     Ni1194   1.915       .  S
C1184      O1190   1.276       .  A
C1184      C2725   1.494       .  S
C1185      C2565   1.481       .  S
H1186      O1187   0.966       .  S
O1187     Ni1195   1.920       .  S
O1187     Ni1189   1.900   1_545  S
O1187     Ni1194   1.899   1_545  S
O1188     Ni1189   1.935       .  S
Ni1189     O1193   1.913       .  S
Ni1189     O1191   1.936       .  S
O1190     Ni1195   1.942       .  S
C1192      O1193   1.268   1_545  A
C1192      C2534   1.475       .  S
O1197     Ni1203   1.929       .  S
O1197      C1218   1.271       .  A
O1198     Ni1221   1.924       .  S
O1198      C1207   1.271   1_545  A
O1199     Ni1203   1.903   1_565  S
O1199     Ni1221   1.908   1_565  S
O1199     Ni1215   1.923       .  S
O1199      H1222   0.965       .  S
C1200      O1217   1.282   1_565  A
C1200      O1209   1.278       .  A
C1200      C2485   1.478   1_565  S
O1201     Ni1220   1.914       .  S
O1201      C1207   1.269       .  A
O1202     Ni1220   1.907       .  S
O1202      C1204   1.268       .  A
Ni1203     O1206   1.915       .  S
Ni1203     O1208   1.910       .  S
C1204      O1214   1.270       .  A
C1204      C2894   1.484       .  S
O1205     Ni1221   1.934       .  S
O1205      C1211   1.280       .  A
O1206      C1211   1.276       .  A
C1207      C3634   1.480   1_565  S
O1208      C1210   1.269       .  A
O1209     Ni1220   1.917       .  S
C1210      O1216   1.275       .  A
C1210      C2625   1.508       .  S
C1211      C2474   1.487   1_445  S
H1212      O1213   0.966       .  S
O1213     Ni1221   1.916       .  S
O1213     Ni1215   1.894   1_545  S
O1213     Ni1220   1.899   1_545  S
O1214     Ni1215   1.934       .  S
Ni1215     O1219   1.906       .  S
Ni1215     O1217   1.927   1_565  S
O1216     Ni1221   1.943       .  S
C1218      O1219   1.267   1_545  A
C1218      C2605   1.474       .  S
O1223     Ni1229   1.916       .  S
O1223      C1244   1.268       .  A
O1224     Ni1247   1.921       .  S
O1224      C1233   1.269   1_545  A
O1225     Ni1229   1.896       .  S
O1225     Ni1247   1.899       .  S
O1225     Ni1241   1.920       .  S
O1225      H1248   0.966   1_545  S
C1226      O1243   1.282   1_565  A
C1226      O1235   1.276       .  A
C1226      C2465   1.488       .  S
O1227     Ni1246   1.910       .  S
O1227      C1233   1.266       .  A
O1228     Ni1246   1.911       .  S
O1228      C1230   1.268       .  A
Ni1229     O1232   1.917       .  S
Ni1229     O1234   1.907       .  S
C1230      O1240   1.269       .  A
C1230      C2874   1.473       .  S
O1231     Ni1247   1.928       .  S
O1231      C1237   1.282       .  A
O1232      C1237   1.277       .  A
C1233      C3594   1.483       .  S
O1234      C1236   1.268       .  A
O1235     Ni1246   1.914       .  S
C1236      O1242   1.269       .  A
C1236      C2694   1.477       .  S
C1237      C2494   1.480       .  S
H1238      O1239   0.966       .  S
O1239     Ni1247   1.926       .  S
O1239     Ni1241   1.903       .  S
O1239     Ni1246   1.896   1_545  S
O1240     Ni1241   1.923   1_565  S
Ni1241     O1245   1.914   1_545  S
Ni1241     O1243   1.935       .  S
O1242     Ni1247   1.925       .  S
C1244      O1245   1.269   1_545  A
C1244      C2525   1.474       .  S
O1249     Ni1255   1.908       .  S
O1249      C1270   1.264       .  A
O1250     Ni1273   1.906       .  S
O1250      C1259   1.266       .  A
O1251     Ni1255   1.909       .  S
O1251     Ni1273   1.904       .  S
O1251     Ni1267   1.921       .  S
O1251      H1274   0.966       .  S
C1252      O1269   1.279       .  A
C1252      O1261   1.277       .  A
C1252      C2414   1.487       .  S
O1253     Ni1272   1.926       .  S
O1253      C1259   1.270       .  A
O1254     Ni1272   1.903       .  S
O1254      C1256   1.269       .  A
Ni1255     O1258   1.909       .  S
Ni1255     O1260   1.911       .  S
C1256      O1266   1.277       .  A
C1256      C2425   1.491       .  S
O1257     Ni1273   1.931       .  S
O1257      C1263   1.281       .  A
O1258      C1263   1.275       .  A
C1259      C2445   1.477       .  S
O1260      C1262   1.267       .  A
O1261     Ni1272   1.922       .  S
C1262      O1268   1.265       .  A
C1262      C2374   1.478       .  S
C1263      C2385   1.478   1_455  S
H1264      O1265   0.966       .  S
O1265     Ni1273   1.922       .  S
O1265     Ni1267   1.909       .  S
O1265     Ni1272   1.899       .  S
O1266     Ni1267   1.947       .  S
Ni1267     O1271   1.925       .  S
Ni1267     O1269   1.927       .  S
O1268     Ni1273   1.919       .  S
C1270      O1271   1.271       .  A
C1270      C5385   1.480       .  S
O1275     Ni1281   1.911       .  S
O1275      C1296   1.265       .  A
O1276     Ni1299   1.908       .  S
O1276      C1285   1.267       .  A
O1277     Ni1281   1.898       .  S
O1277     Ni1299   1.898       .  S
O1277     Ni1293   1.922       .  S
O1277      H1300   0.966       .  S
C1278      O1295   1.284       .  A
C1278      O1287   1.275       .  A
C1278      C2394   1.484       .  S
O1279     Ni1298   1.918       .  S
O1279      C1285   1.267       .  A
O1280     Ni1298   1.898       .  S
O1280      C1282   1.267       .  A
Ni1281     O1284   1.920       .  S
Ni1281     O1286   1.905       .  S
C1282      O1292   1.278       .  A
C1282      C2325   1.502       .  S
O1283     Ni1299   1.933       .  S
O1283      C1289   1.283       .  A
O1284      C1289   1.278       .  A
C1285      C2345   1.465       .  S
O1286      C1288   1.266       .  A
O1287     Ni1298   1.905       .  S
C1288      O1294   1.267       .  A
C1288      C2314   1.480       .  S
C1289      C2405   1.485       .  S
H1290      O1291   0.966       .  S
O1291     Ni1299   1.926       .  S
O1291     Ni1293   1.907       .  S
O1291     Ni1298   1.896       .  S
O1292     Ni1293   1.949       .  S
Ni1293     O1297   1.943       .  S
Ni1293     O1295   1.941       .  S
O1294     Ni1299   1.926       .  S
C1296      O1297   1.276       .  A
C1296      C5314   1.495       .  S
O1301     Ni1307   1.911       .  S
O1301      C1322   1.265   1_455  A
O1302     Ni1325   1.908       .  S
O1302      C1311   1.265       .  A
O1303     Ni1307   1.913       .  S
O1303     Ni1325   1.905       .  S
O1303     Ni1319   1.926   1_455  S
O1303      H1326   0.966       .  S
C1304      O1321   1.280       .  A
C1304      O1313   1.274       .  A
C1304      C2254   1.477       .  S
O1305     Ni1324   1.923   1_455  S
O1305      C1311   1.267       .  A
O1306     Ni1324   1.900       .  S
O1306      C1308   1.267       .  A
Ni1307     O1310   1.927       .  S
Ni1307     O1312   1.901       .  S
C1308      O1318   1.271       .  A
C1308      C2294   1.487       .  S
O1309     Ni1325   1.927       .  S
O1309      C1315   1.277       .  A
O1310      C1315   1.278       .  A
C1311      C2454   1.477       .  S
O1312      C1314   1.264       .  A
O1313     Ni1324   1.914       .  S
C1314      O1320   1.268       .  A
C1314      C2225   1.473       .  S
C1315      C2265   1.493       .  S
H1316      O1317   0.966       .  S
O1317     Ni1325   1.922   1_655  S
O1317     Ni1319   1.920       .  S
O1317     Ni1324   1.908       .  S
O1318     Ni1319   1.928       .  S
Ni1319     O1323   1.929       .  S
Ni1319     O1321   1.930       .  S
O1320     Ni1325   1.927       .  S
C1322      O1323   1.270       .  A
C1322      C3234   1.483       .  S
O1327     Ni1333   1.907       .  S
O1327      C1348   1.266       .  A
O1328     Ni1351   1.904       .  S
O1328      C1337   1.265       .  A
O1329     Ni1333   1.902       .  S
O1329     Ni1351   1.897       .  S
O1329     Ni1345   1.920       .  S
O1329      H1352   0.966       .  S
C1330      O1347   1.283       .  A
C1330      O1339   1.277       .  A
C1330      C2274   1.480       .  S
O1331     Ni1350   1.934       .  S
O1331      C1337   1.271       .  A
O1332     Ni1350   1.901       .  S
O1332      C1334   1.268       .  A
Ni1333     O1336   1.914       .  S
Ni1333     O1338   1.913       .  S
C1334      O1344   1.275       .  A
C1334      C2205   1.485       .  S
O1335     Ni1351   1.928       .  S
O1335      C1341   1.280       .  A
O1336      C1341   1.276       .  A
C1337      C2354   1.471       .  S
O1338      C1340   1.268       .  A
O1339     Ni1350   1.918       .  S
C1340      O1346   1.268       .  A
C1340      C2194   1.484       .  S
C1341      C2245   1.483       .  S
H1342      O1343   0.966       .  S
O1343     Ni1351   1.920       .  S
O1343     Ni1345   1.912       .  S
O1343     Ni1350   1.900       .  S
O1344     Ni1345   1.935       .  S
Ni1345     O1349   1.938       .  S
Ni1345     O1347   1.938       .  S
O1346     Ni1351   1.923       .  S
C1348      O1349   1.274       .  A
C1348      C3314   1.489       .  S
O1353     Ni1359   1.902       .  S
O1353      C1374   1.261       .  A
O1354     Ni1377   1.909       .  S
O1354      C1363   1.267       .  A
O1355     Ni1359   1.902       .  S
O1355     Ni1377   1.897       .  S
O1355     Ni1371   1.927       .  S
O1355      H1378   0.966       .  S
C1356      O1373   1.282       .  A
C1356      O1365   1.279       .  A
C1356      C2154   1.490       .  S
O1357     Ni1376   1.926       .  S
O1357      C1363   1.271       .  A
O1358     Ni1376   1.903       .  S
O1358      C1360   1.269       .  A
Ni1359     O1362   1.911       .  S
Ni1359     O1364   1.905       .  S
C1360      O1370   1.281       .  A
C1360      C2434   1.499       .  S
O1361     Ni1377   1.943       .  S
O1361      C1367   1.285       .  A
O1362      C1367   1.277       .  A
C1363      C2174   1.478       .  S
O1364      C1366   1.265       .  A
O1365     Ni1376   1.929       .  S
C1366      O1372   1.267       .  A
C1366      C2105   1.475       .  S
C1367      C2125   1.483       .  S
H1368      O1369   0.966       .  S
O1369     Ni1377   1.925       .  S
O1369     Ni1371   1.910       .  S
O1369     Ni1376   1.895       .  S
O1370     Ni1371   1.957       .  S
Ni1371     O1375   1.938       .  S
Ni1371     O1373   1.932       .  S
O1372     Ni1377   1.923       .  S
C1374      O1375   1.275       .  A
C1374      C4774   1.479       .  S
O1379     Ni1385   1.913       .  S
O1379      C1400   1.266       .  A
O1380     Ni1403   1.907       .  S
O1380      C1389   1.267       .  A
O1381     Ni1385   1.912       .  S
O1381     Ni1403   1.904       .  S
O1381     Ni1397   1.926       .  S
O1381      H1404   0.966       .  S
C1382      O1399   1.281       .  A
C1382      O1391   1.279       .  A
C1382      C2134   1.484       .  S
O1383     Ni1402   1.934       .  S
O1383      C1389   1.274       .  A
O1384     Ni1402   1.906       .  S
O1384      C1386   1.269       .  A
Ni1385     O1388   1.918       .  S
Ni1385     O1390   1.912       .  S
C1386      O1396   1.280       .  A
C1386      C2334   1.490       .  S
O1387     Ni1403   1.939       .  S
O1387      C1393   1.282       .  A
O1388      C1393   1.276       .  A
C1389      C2085   1.474       .  S
O1390      C1392   1.268       .  A
O1391     Ni1402   1.919       .  S
C1392      O1398   1.267       .  A
C1392      C2065   1.490       .  S
C1393      C2145   1.489       .  S
H1394      O1395   0.966       .  S
O1395     Ni1403   1.918       .  S
O1395     Ni1397   1.906       .  S
O1395     Ni1402   1.893       .  S
O1396     Ni1397   1.949       .  S
Ni1397     O1401   1.931       .  S
Ni1397     O1399   1.932       .  S
O1398     Ni1403   1.923       .  S
C1400      O1401   1.272       .  A
C1400      C4705   1.484       .  S
O1405     Ni1411   1.915       .  S
O1405      C1426   1.264       .  A
O1406     Ni1429   1.912       .  S
O1406      C1415   1.269       .  A
O1407     Ni1411   1.914       .  S
O1407     Ni1429   1.914       .  S
O1407     Ni1423   1.921       .  S
O1407      H1430   0.966       .  S
C1408      O1425   1.276       .  A
C1408      O1417   1.275       .  A
C1408      C2034   1.491       .  S
O1409     Ni1428   1.923       .  S
O1409      C1415   1.269       .  A
O1410     Ni1428   1.896       .  S
O1410      C1412   1.266       .  A
Ni1411     O1414   1.914       .  S
Ni1411     O1416   1.907       .  S
C1412      O1422   1.276       .  A
C1412      C2214   1.480       .  S
O1413     Ni1429   1.934       .  S
O1413      C1419   1.280       .  A
O1414      C1419   1.275       .  A
C1415      C2165   1.480       .  S
O1416      C1418   1.267       .  A
O1417     Ni1428   1.920       .  S
C1418      O1424   1.266       .  A
C1418      C2014   1.469       .  S
C1419      C2054   1.487       .  S
H1420      O1421   0.966       .  S
O1421     Ni1429   1.915       .  S
O1421     Ni1423   1.909       .  S
O1421     Ni1428   1.904       .  S
O1422     Ni1423   1.944       .  S
Ni1423     O1427   1.926       .  S
Ni1423     O1425   1.921       .  S
O1424     Ni1429   1.915       .  S
C1426      O1427   1.270       .  A
C1426      C2765   1.483       .  S
O1431     Ni1437   1.907       .  S
O1431      C1452   1.263       .  A
O1432     Ni1455   1.912       .  S
O1432      C1441   1.268       .  A
O1433     Ni1437   1.905       .  S
O1433     Ni1455   1.905       .  S
O1433     Ni1449   1.925       .  S
O1433      H1456   0.966       .  S
C1434      O1451   1.284       .  A
C1434      O1443   1.276       .  A
C1434      C2045   1.486   1_655  S
O1435     Ni1454   1.924       .  S
O1435      C1441   1.269       .  A
O1436     Ni1454   1.901       .  S
O1436      C1438   1.268       .  A
Ni1437     O1440   1.910       .  S
Ni1437     O1442   1.908       .  S
C1438      O1448   1.274       .  A
C1438      C2285   1.480       .  S
O1439     Ni1455   1.933       .  S
O1439      C1445   1.280       .  A
O1440      C1445   1.275       .  A
C1441      C2094   1.477       .  S
O1442      C1444   1.267       .  A
O1443     Ni1454   1.917       .  S
C1444      O1450   1.269       .  A
C1444      C1985   1.483       .  S
C1445      C2025   1.475       .  S
H1446      O1447   0.966       .  S
O1447     Ni1455   1.918       .  S
O1447     Ni1449   1.912       .  S
O1447     Ni1454   1.901       .  S
O1448     Ni1449   1.935       .  S
Ni1449     O1453   1.941       .  S
Ni1449     O1451   1.936       .  S
O1450     Ni1455   1.924       .  S
C1452      O1453   1.274       .  A
C1452      C2714   1.484       .  S
O1457     Ni1463   1.917       .  S
O1457      C1478   1.266   1_545  A
O1458     Ni1481   1.907       .  S
O1458      C1467   1.267       .  A
O1459     Ni1463   1.910   1_565  S
O1459     Ni1481   1.906       .  S
O1459     Ni1475   1.936       .  S
O1459      H1482   0.966       .  S
C1460      O1477   1.287       .  A
C1460      O1469   1.277       .  A
C1460      C1905   1.489       .  S
O1461     Ni1480   1.925       .  S
O1461      C1467   1.270       .  A
O1462     Ni1480   1.908       .  S
O1462      C1464   1.269       .  A
Ni1463     O1466   1.927       .  S
Ni1463     O1468   1.900       .  S
C1464      O1474   1.271       .  A
C1464      C1945   1.481       .  S
O1465     Ni1481   1.937       .  S
O1465      C1471   1.281   1_565  A
O1466      C1471   1.277       .  A
C1467      C1974   1.472       .  S
O1468      C1470   1.266       .  A
O1469     Ni1480   1.918       .  S
C1470      O1476   1.269       .  A
C1470      C2114   1.473       .  S
C1471      C1934   1.493       .  S
H1472      O1473   0.966   1_545  S
O1473     Ni1481   1.922       .  S
O1473     Ni1475   1.904       .  S
O1473     Ni1480   1.904       .  S
O1474     Ni1475   1.925       .  S
Ni1475     O1479   1.931       .  S
Ni1475     O1477   1.948       .  S
O1476     Ni1481   1.923   1_545  S
C1478      O1479   1.272       .  A
C1478      C4514   1.488       .  S
O1483     Ni1489   1.903       .  S
O1483      C1504   1.266   1_545  A
O1484     Ni1507   1.904       .  S
O1484      C1493   1.264       .  A
O1485     Ni1489   1.921   1_565  S
O1485     Ni1507   1.914       .  S
O1485     Ni1501   1.939       .  S
O1485      H1508   0.965       .  S
C1486      O1503   1.281   1_565  A
C1486      O1495   1.274       .  A
C1486      C1925   1.492   1_665  S
O1487     Ni1506   1.928       .  S
O1487      C1493   1.269       .  A
O1488     Ni1506   1.912       .  S
O1488      C1490   1.271       .  A
Ni1489     O1492   1.926   1_545  S
Ni1489     O1494   1.897       .  S
C1490      O1500   1.275       .  A
C1490      C1865   1.493       .  S
O1491     Ni1507   1.923       .  S
O1491      C1497   1.270       .  A
O1492      C1497   1.269       .  A
C1493      C1894   1.472       .  S
O1494      C1496   1.267       .  A
O1495     Ni1506   1.921       .  S
C1496      O1502   1.277       .  A
C1496      C2074   1.478       .  S
C1497      C1914   1.492       .  S
H1498      O1499   0.966   1_545  S
O1499     Ni1507   1.915       .  S
O1499     Ni1501   1.912       .  S
O1499     Ni1506   1.919       .  S
O1500     Ni1501   1.943       .  S
Ni1501     O1505   1.923       .  S
Ni1501     O1503   1.938   1_565  S
O1502     Ni1507   1.954   1_545  S
C1504      O1505   1.273       .  A
C1504      C4474   1.473       .  S
O1509     Ni1515   1.904       .  S
O1509      C1530   1.263       .  A
O1510     Ni1533   1.911       .  S
O1510      C1519   1.267   1_545  A
O1511     Ni1515   1.903   1_565  S
O1511     Ni1533   1.902   1_565  S
O1511     Ni1527   1.924       .  S
O1511      H1534   0.966       .  S
C1512      O1529   1.278       .  A
C1512      O1521   1.277   1_545  A
C1512      C1825   1.482       .  S
O1513     Ni1532   1.921       .  S
O1513      C1519   1.268       .  A
O1514     Ni1532   1.896       .  S
O1514      C1516   1.267       .  A
Ni1515     O1518   1.911       .  S
Ni1515     O1520   1.906       .  S
C1516      O1526   1.274       .  A
C1516      C1845   1.480       .  S
O1517     Ni1533   1.936   1_565  S
O1517      C1523   1.283       .  A
O1518      C1523   1.275   1_545  A
C1519      C1965   1.469       .  S
O1520      C1522   1.267       .  A
O1521     Ni1532   1.923       .  S
C1522      O1528   1.266       .  A
C1522      C2005   1.473       .  S
C1523      C1805   1.480       .  S
H1524      O1525   0.966       .  S
O1525     Ni1533   1.927       .  S
O1525     Ni1527   1.907   1_545  S
O1525     Ni1532   1.899   1_545  S
O1526     Ni1527   1.934       .  S
Ni1527     O1531   1.928       .  S
Ni1527     O1529   1.923   1_565  S
O1528     Ni1533   1.918       .  S
C1530      O1531   1.270   1_545  A
C1530      C2545   1.491       .  S
O1535     Ni1541   1.918       .  S
O1535      C1556   1.266       .  A
O1536     Ni1559   1.910       .  S
O1536      C1545   1.268   1_545  A
O1537     Ni1541   1.908   1_565  S
O1537     Ni1559   1.906   1_565  S
O1537     Ni1553   1.919       .  S
O1537      H1560   0.966       .  S
C1538      O1555   1.280       .  A
C1538      O1547   1.277       .  A
C1538      C1814   1.495       .  S
O1539     Ni1558   1.932       .  S
O1539      C1545   1.271       .  A
O1540     Ni1558   1.904       .  S
O1540      C1542   1.268       .  A
Ni1541     O1544   1.919       .  S
Ni1541     O1546   1.904       .  S
C1542      O1552   1.275       .  A
C1542      C1785   1.493       .  S
O1543     Ni1559   1.924       .  S
O1543      C1549   1.279       .  A
O1544      C1549   1.276       .  A
C1545      C1885   1.473       .  S
O1546      C1548   1.267       .  A
O1547     Ni1558   1.921       .  S
C1548      O1554   1.271       .  A
C1548      C1994   1.481       .  S
C1549      C1834   1.482       .  S
H1550      O1551   0.966       .  S
O1551     Ni1559   1.916       .  S
O1551     Ni1553   1.908   1_545  S
O1551     Ni1558   1.903   1_545  S
O1552     Ni1553   1.942       .  S
Ni1553     O1557   1.921       .  S
Ni1553     O1555   1.934       .  S
O1554     Ni1559   1.931       .  S
C1556      O1557   1.270   1_545  A
C1556      C2505   1.478       .  S
O1561     Ni1567   1.907       .  S
O1561      C1582   1.264   1_455  A
O1562     Ni1585   1.891       .  S
O1562      C1571   1.264       .  A
O1563     Ni1567   1.909       .  S
O1563     Ni1585   1.899       .  S
O1563     Ni1579   1.930   1_455  S
O1563      H1586   0.966       .  S
C1564      O1581   1.281       .  A
C1564      O1573   1.279       .  A
C1564      C1725   1.485       .  S
O1565     Ni1584   1.927   1_455  S
O1565      C1571   1.272       .  A
O1566     Ni1584   1.906       .  S
O1566      C1568   1.269       .  A
Ni1567     O1570   1.917       .  S
Ni1567     O1572   1.909       .  S
C1568      O1578   1.278       .  A
C1568      C1874   1.494       .  S
O1569     Ni1585   1.932       .  S
O1569      C1575   1.280       .  A
O1570      C1575   1.277       .  A
C1571      C1774   1.463       .  S
O1572      C1574   1.267       .  A
O1573     Ni1584   1.923       .  S
C1574      O1580   1.266       .  A
C1574      C2365   1.477       .  S
C1575      C1745   1.486       .  S
H1576      O1577   0.966       .  S
O1577     Ni1585   1.914   1_655  S
O1577     Ni1579   1.896       .  S
O1577     Ni1584   1.892       .  S
O1578     Ni1579   1.952       .  S
Ni1579     O1583   1.916       .  S
Ni1579     O1581   1.925       .  S
O1580     Ni1585   1.921       .  S
C1582      O1583   1.269       .  A
C1582      C4994   1.474       .  S
O1587     Ni1593   1.908       .  S
O1587      C1608   1.262       .  A
O1588     Ni1611   1.900       .  S
O1588      C1597   1.266       .  A
O1589     Ni1593   1.894       .  S
O1589     Ni1611   1.892       .  S
O1589     Ni1605   1.922       .  S
O1589      H1612   0.966       .  S
C1590      O1607   1.283       .  A
C1590      O1599   1.277       .  A
C1590      C1754   1.487       .  S
O1591     Ni1610   1.933       .  S
O1591      C1597   1.272       .  A
O1592     Ni1610   1.906       .  S
O1592      C1594   1.270       .  A
Ni1593     O1596   1.911       .  S
Ni1593     O1598   1.905       .  S
C1594      O1604   1.275       .  A
C1594      C1954   1.497       .  S
O1595     Ni1611   1.941       .  S
O1595      C1601   1.284       .  A
O1596      C1601   1.277       .  A
C1597      C1714   1.468       .  S
O1598      C1600   1.266       .  A
O1599     Ni1610   1.920       .  S
C1600      O1606   1.268       .  A
C1600      C2305   1.480       .  S
C1601      C1734   1.482       .  S
H1602      O1603   0.966       .  S
O1603     Ni1611   1.924       .  S
O1603     Ni1605   1.911       .  S
O1603     Ni1610   1.899       .  S
O1604     Ni1605   1.940       .  S
Ni1605     O1609   1.933       .  S
Ni1605     O1607   1.940       .  S
O1606     Ni1611   1.926       .  S
C1608      O1609   1.273       .  A
C1608      C5045   1.496       .  S
O1613     Ni1619   1.903       .  S
O1613      C1634   1.263       .  A
O1614     Ni1637   1.902       .  S
O1614      C1623   1.264       .  A
O1615     Ni1619   1.910       .  S
O1615     Ni1637   1.899       .  S
O1615     Ni1631   1.933       .  S
O1615      H1638   0.966       .  S
C1616      O1633   1.283       .  A
C1616      O1625   1.277       .  A
C1616      C1685   1.482       .  S
O1617     Ni1636   1.922       .  S
O1617      C1623   1.267       .  A
O1618     Ni1636   1.894       .  S
O1618      C1620   1.266       .  A
Ni1619     O1622   1.915       .  S
Ni1619     O1624   1.899       .  S
C1620      O1630   1.276       .  A
C1620      C1854   1.490       .  S
O1621     Ni1637   1.930       .  S
O1621      C1627   1.280       .  A
O1622      C1627   1.275       .  A
C1623      C1765   1.462       .  S
O1624      C1626   1.265       .  A
O1625     Ni1636   1.917       .  S
C1626      O1632   1.268       .  A
C1626      C2234   1.484       .  S
C1627      C1665   1.475   1_455  S
H1628      O1629   0.966       .  S
O1629     Ni1637   1.917       .  S
O1629     Ni1631   1.910       .  S
O1629     Ni1636   1.897       .  S
O1630     Ni1631   1.942       .  S
Ni1631     O1635   1.938       .  S
Ni1631     O1633   1.930       .  S
O1632     Ni1637   1.926       .  S
C1634      O1635   1.272       .  A
C1634      C3014   1.483       .  S
O1639     Ni1645   1.911       .  S
O1639      C1660   1.265       .  A
O1640     Ni1663   1.906       .  S
O1640      C1649   1.266       .  A
O1641     Ni1645   1.914       .  S
O1641     Ni1663   1.910       .  S
O1641     Ni1657   1.926       .  S
O1641      H1664   0.966       .  S
C1642      O1659   1.278       .  A
C1642      O1651   1.276       .  A
C1642      C1674   1.498       .  S
O1643     Ni1662   1.926       .  S
O1643      C1649   1.270       .  A
O1644     Ni1662   1.907       .  S
O1644      C1646   1.268       .  A
Ni1645     O1648   1.912       .  S
Ni1645     O1650   1.912       .  S
C1646      O1656   1.271       .  A
C1646      C1794   1.485       .  S
O1647     Ni1663   1.933       .  S
O1647      C1653   1.279       .  A
O1648      C1653   1.274       .  A
C1649      C1705   1.470       .  S
O1650      C1652   1.269       .  A
O1651     Ni1662   1.923       .  S
C1652      O1658   1.269       .  A
C1652      C2185   1.486       .  S
C1653      C1694   1.480       .  S
H1654      O1655   0.966       .  S
O1655     Ni1663   1.917       .  S
O1655     Ni1657   1.907       .  S
O1655     Ni1662   1.908       .  S
O1656     Ni1657   1.935       .  S
Ni1657     O1661   1.926       .  S
Ni1657     O1659   1.925       .  S
O1658     Ni1663   1.925       .  S
C1660      O1661   1.268       .  A
C1660      C2954   1.483       .  S
C1665      C1666   1.412       .  A
C1665      C1670   1.408       .  A
C1666      C1667   1.407       .  A
C1666     Br1678   1.931       .  S
C1667      C1668   1.408       .  A
C1667     Br1682   1.931       .  S
C1668      C1671   1.485       .  S
C1668      C1669   1.411       .  A
C1669      C1670   1.408       .  A
C1669     Br1677   1.929       .  S
C1670     Br1681   1.929       .  S
C1671      C1672   1.408       .  A
C1671      C1676   1.403       .  A
C1672      C1673   1.411       .  A
C1672     Br1683   1.932       .  S
C1673      C1674   1.421       .  A
C1673     Br1679   1.933       .  S
C1674      C1675   1.426       .  A
C1675      C1676   1.407       .  A
C1675     Br1684   1.937       .  S
C1676     Br1680   1.934       .  S
C1685      C1686   1.416       .  A
C1685      C1690   1.413       .  A
C1686      C1687   1.406       .  A
C1686     Br1698   1.934       .  S
C1687      C1688   1.408       .  A
C1687     Br1702   1.933       .  S
C1688      C1691   1.487       .  S
C1688      C1689   1.410       .  A
C1689      C1690   1.410       .  A
C1689     Br1697   1.929       .  S
C1690     Br1701   1.931       .  S
C1691      C1692   1.411       .  A
C1691      C1696   1.408       .  A
C1692      C1693   1.411       .  A
C1692     Br1703   1.929       .  S
C1693      C1694   1.411       .  A
C1693     Br1699   1.928       .  S
C1694      C1695   1.414       .  A
C1695      C1696   1.405       .  A
C1695     Br1704   1.934       .  S
C1696     Br1700   1.932       .  S
C1705      C1706   1.406       .  A
C1705      C1710   1.410       .  A
C1706      C1707   1.406       .  A
C1706     Br1718   1.926       .  S
C1707      C1708   1.409       .  A
C1707     Br1722   1.930       .  S
C1708      C1711   1.481       .  S
C1708      C1709   1.408       .  A
C1709      C1710   1.406       .  A
C1709     Br1717   1.929       .  S
C1710     Br1721   1.931       .  S
C1711      C1712   1.410       .  A
C1711      C1716   1.408       .  A
C1712      C1713   1.407       .  A
C1712     Br1723   1.929       .  S
C1713      C1714   1.407       .  A
C1713     Br1719   1.927       .  S
C1714      C1715   1.408       .  A
C1715      C1716   1.405       .  A
C1715     Br1724   1.930       .  S
C1716     Br1720   1.930       .  S
C1725      C1726   1.415       .  A
C1725      C1730   1.417       .  A
C1726      C1727   1.410       .  A
C1726     Br1738   1.932       .  S
C1727      C1728   1.409       .  A
C1727     Br1742   1.929       .  S
C1728      C1731   1.485       .  S
C1728      C1729   1.406       .  A
C1729      C1730   1.406       .  A
C1729     Br1737   1.932       .  S
C1730     Br1741   1.934       .  S
C1731      C1732   1.406       .  A
C1731      C1736   1.411       .  A
C1732      C1733   1.404       .  A
C1732     Br1743   1.932       .  S
C1733      C1734   1.415       .  A
C1733     Br1739   1.934       .  S
C1734      C1735   1.412       .  A
C1735      C1736   1.412       .  A
C1735     Br1744   1.928       .  S
C1736     Br1740   1.928       .  S
C1745      C1746   1.417       .  A
C1745      C1750   1.413       .  A
C1746      C1747   1.408       .  A
C1746     Br1758   1.934       .  S
C1747      C1748   1.407       .  A
C1747     Br1762   1.931       .  S
C1748      C1751   1.488       .  S
C1748      C1749   1.410       .  A
C1749      C1750   1.410       .  A
C1749     Br1757   1.930       .  S
C1750     Br1761   1.930       .  S
C1751      C1752   1.409       .  A
C1751      C1756   1.408       .  A
C1752      C1753   1.409       .  A
C1752     Br1763   1.932       .  S
C1753      C1754   1.411       .  A
C1753     Br1759   1.918       .  S
C1754      C1755   1.414       .  A
C1755      C1756   1.409       .  A
C1755     Br1764   1.931       .  S
C1756     Br1760   1.929       .  S
C1765      C1766   1.407       .  A
C1765      C1770   1.406       .  A
C1766      C1767   1.404       .  A
C1766     Br1778   1.931       .  S
C1767      C1768   1.408       .  A
C1767     Br1782   1.930       .  S
C1768      C1771   1.476       .  S
C1768      C1769   1.410       .  A
C1769      C1770   1.404       .  A
C1769     Br1777   1.930       .  S
C1770     Br1781   1.928       .  S
C1771      C1772   1.408       .  A
C1771      C1776   1.410       .  A
C1772      C1773   1.404       .  A
C1772     Br1783   1.930       .  S
C1773      C1774   1.410       .  A
C1773     Br1779   1.933       .  S
C1774      C1775   1.406       .  A
C1775      C1776   1.403       .  A
C1775     Br1784   1.929       .  S
C1776     Br1780   1.930       .  S
C1785      C1786   1.416       .  A
C1785      C1790   1.416       .  A
C1786      C1787   1.410       .  A
C1786     Br1798   1.922       .  S
C1787      C1788   1.407       .  A
C1787     Br1802   1.930       .  S
C1788      C1791   1.489       .  S
C1788      C1789   1.408       .  A
C1789      C1790   1.409       .  A
C1789     Br1797   1.930       .  S
C1790     Br1801   1.932       .  S
C1791      C1792   1.410       .  A
C1791      C1796   1.408       .  A
C1792      C1793   1.409       .  A
C1792     Br1803   1.928       .  S
C1793      C1794   1.410       .  A
C1793     Br1799   1.930       .  S
C1794      C1795   1.415       .  A
C1795      C1796   1.410       .  A
C1795     Br1804   1.925       .  S
C1796     Br1800   1.931       .  S
C1805      C1806   1.409       .  A
C1805      C1810   1.416   1_565  A
C1806      C1807   1.411       .  A
C1806     Br1818   1.928       .  S
C1807      C1808   1.411       .  A
C1807     Br1822   1.928       .  S
C1808      C1811   1.487       .  S
C1808      C1809   1.406   1_565  A
C1809      C1810   1.405       .  A
C1809     Br1817   1.932       .  S
C1810     Br1821   1.934       .  S
C1811      C1812   1.406   1_565  A
C1811      C1816   1.407       .  A
C1812      C1813   1.408       .  A
C1812     Br1823   1.931       .  S
C1813      C1814   1.419   1_545  A
C1813     Br1819   1.934       .  S
C1814      C1815   1.417       .  A
C1815      C1816   1.410       .  A
C1815     Br1824   1.923       .  S
C1816     Br1820   1.932       .  S
C1825      C1826   1.413       .  A
C1825      C1830   1.414   1_545  A
C1826      C1827   1.409       .  A
C1826     Br1838   1.931       .  S
C1827      C1828   1.410       .  A
C1827     Br1842   1.931       .  S
C1828      C1831   1.486   1_455  S
C1828      C1829   1.409   1_545  A
C1829      C1830   1.407       .  A
C1829     Br1837   1.932       .  S
C1830     Br1841   1.932       .  S
C1831      C1832   1.411   1_545  A
C1831      C1836   1.407       .  A
C1832      C1833   1.409       .  A
C1832     Br1843   1.930       .  S
C1833      C1834   1.412   1_565  A
C1833     Br1839   1.929       .  S
C1834      C1835   1.415       .  A
C1835      C1836   1.406       .  A
C1835     Br1844   1.933       .  S
C1836     Br1840   1.932       .  S
C1845      C1846   1.411       .  A
C1845      C1850   1.416       .  A
C1846      C1847   1.409       .  A
C1846     Br1858   1.929       .  S
C1847      C1848   1.411       .  A
C1847     Br1862   1.929       .  S
C1848      C1851   1.486       .  S
C1848      C1849   1.407       .  A
C1849      C1850   1.405       .  A
C1849     Br1857   1.932       .  S
C1850     Br1861   1.935       .  S
C1851      C1852   1.410       .  A
C1851      C1856   1.406       .  A
C1852      C1853   1.413       .  A
C1852     Br1863   1.929       .  S
C1853      C1854   1.415       .  A
C1853     Br1859   1.929       .  S
C1854      C1855   1.421       .  A
C1855      C1856   1.404       .  A
C1855     Br1864   1.937       .  S
C1856     Br1860   1.935       .  S
C1865      C1866   1.413       .  A
C1865      C1870   1.416       .  A
C1866      C1867   1.414       .  A
C1866     Br1878   1.927       .  S
C1867      C1868   1.413       .  A
C1867     Br1882   1.929       .  S
C1868      C1871   1.499       .  S
C1868      C1869   1.411       .  A
C1869      C1870   1.410       .  A
C1869     Br1877   1.931   1_655  S
C1870     Br1881   1.933       .  S
C1871      C1872   1.416       .  A
C1871      C1876   1.408       .  A
C1872      C1873   1.419       .  A
C1872     Br1883   1.927   1_655  S
C1873      C1874   1.413       .  A
C1873     Br1879   1.925   1_655  S
C1874      C1875   1.416       .  A
C1875      C1876   1.405       .  A
C1875     Br1884   1.930       .  S
C1876     Br1880   1.934       .  S
C1885      C1886   1.408   1_565  A
C1885      C1890   1.408       .  A
C1886      C1887   1.407       .  A
C1886     Br1898   1.930       .  S
C1887      C1888   1.409   1_545  A
C1887     Br1902   1.928       .  S
C1888      C1891   1.485       .  S
C1888      C1889   1.409       .  A
C1889      C1890   1.408       .  A
C1889     Br1897   1.930       .  S
C1890     Br1901   1.923       .  S
C1891      C1892   1.409   1_565  A
C1891      C1896   1.411       .  A
C1892      C1893   1.407       .  A
C1892     Br1903   1.929       .  S
C1893      C1894   1.410   1_545  A
C1893     Br1899   1.931       .  S
C1894      C1895   1.406       .  A
C1895      C1896   1.408       .  A
C1895     Br1904   1.927       .  S
C1896     Br1900   1.929       .  S
C1905      C1906   1.411       .  A
C1905      C1910   1.418       .  A
C1906      C1907   1.413       .  A
C1906     Br1918   1.928   1_565  S
C1907      C1908   1.412       .  A
C1907     Br1922   1.930   1_565  S
C1908      C1911   1.494       .  S
C1908      C1909   1.408       .  A
C1909      C1910   1.410       .  A
C1909     Br1917   1.931       .  S
C1910     Br1921   1.932       .  S
C1911      C1912   1.413       .  A
C1911      C1916   1.407       .  A
C1912      C1913   1.414       .  A
C1912     Br1923   1.929       .  S
C1913      C1914   1.415       .  A
C1913     Br1919   1.930       .  S
C1914      C1915   1.418       .  A
C1915      C1916   1.408       .  A
C1915     Br1924   1.935       .  S
C1916     Br1920   1.932       .  S
C1925      C1926   1.417       .  A
C1925      C1930   1.413   1_545  A
C1926      C1927   1.413       .  A
C1926     Br1938   1.932   1_455  S
C1927      C1928   1.409       .  A
C1927     Br1942   1.930       .  S
C1928      C1931   1.497       .  S
C1928      C1929   1.412   1_545  A
C1929      C1930   1.413       .  A
C1929     Br1937   1.929       .  S
C1930     Br1941   1.930       .  S
C1931      C1932   1.412   1_545  A
C1931      C1936   1.409       .  A
C1932      C1933   1.414       .  A
C1932     Br1943   1.929       .  S
C1933      C1934   1.413   1_565  A
C1933     Br1939   1.929       .  S
C1934      C1935   1.417       .  A
C1935      C1936   1.412       .  A
C1935     Br1944   1.932       .  S
C1936     Br1940   1.930       .  S
C1945      C1946   1.410       .  A
C1945      C1950   1.416       .  A
C1946      C1947   1.409       .  A
C1946     Br1958   1.930       .  S
C1947      C1948   1.411       .  A
C1947     Br1962   1.929       .  S
C1948      C1951   1.488       .  S
C1948      C1949   1.408       .  A
C1949      C1950   1.407       .  A
C1949     Br1957   1.931       .  S
C1950     Br1961   1.933       .  S
C1951      C1952   1.408       .  A
C1951      C1956   1.407       .  A
C1952      C1953   1.411       .  A
C1952     Br1963   1.931       .  S
C1953      C1954   1.419       .  A
C1953     Br1959   1.928       .  S
C1954      C1955   1.418       .  A
C1955      C1956   1.407       .  A
C1955     Br1964   1.933       .  S
C1956     Br1960   1.933       .  S
C1965      C1966   1.409   1_565  A
C1965      C1970   1.408       .  A
C1966      C1967   1.404       .  A
C1966     Br1978   1.931       .  S
C1967      C1968   1.408   1_545  A
C1967     Br1982   1.930       .  S
C1968      C1971   1.481       .  S
C1968      C1969   1.411       .  A
C1969      C1970   1.409       .  A
C1969     Br1977   1.928       .  S
C1970     Br1981   1.928       .  S
C1971      C1972   1.408   1_565  A
C1971      C1976   1.410       .  A
C1972      C1973   1.406       .  A
C1972     Br1983   1.929       .  S
C1973      C1974   1.411   1_545  A
C1973     Br1979   1.931       .  S
C1974      C1975   1.408       .  A
C1975      C1976   1.407       .  A
C1975     Br1984   1.929       .  S
C1976     Br1980   1.930       .  S
C1985      C1986   1.416       .  A
C1985      C1990   1.412       .  A
C1986      C1987   1.410       .  A
C1986     Br1998   1.932       .  S
C1987      C1988   1.408       .  A
C1987     Br2002   1.929       .  S
C1988      C1991   1.487       .  S
C1988      C1989   1.409       .  A
C1989      C1990   1.406       .  A
C1989     Br1997   1.932       .  S
C1990     Br2001   1.929       .  S
C1991      C1992   1.410       .  A
C1991      C1996   1.408       .  A
C1992      C1993   1.410       .  A
C1992     Br2003   1.929       .  S
C1993      C1994   1.413       .  A
C1993     Br1999   1.931       .  S
C1994      C1995   1.411       .  A
C1995      C1996   1.407       .  A
C1995     Br2004   1.929       .  S
C1996     Br2000   1.930       .  S
C2005      C2006   1.408       .  A
C2005      C2010   1.412       .  A
C2006      C2007   1.402       .  A
C2006     Br2018   1.925       .  S
C2007      C2008   1.408       .  A
C2007     Br2022   1.932       .  S
C2008      C2011   1.480       .  S
C2008      C2009   1.409       .  A
C2009      C2010   1.408       .  A
C2009     Br2017   1.929       .  S
C2010     Br2021   1.931       .  S
C2011      C2012   1.409       .  A
C2011      C2016   1.410       .  A
C2012      C2013   1.404       .  A
C2012     Br2023   1.931       .  S
C2013      C2014   1.408       .  A
C2013     Br2019   1.928       .  S
C2014      C2015   1.409       .  A
C2015      C2016   1.406       .  A
C2015     Br2024   1.931       .  S
C2016     Br2020   1.929       .  S
C2025      C2026   1.414       .  A
C2025      C2030   1.409       .  A
C2026      C2027   1.403       .  A
C2026     Br2038   1.933       .  S
C2027      C2028   1.406       .  A
C2027     Br2042   1.932       .  S
C2028      C2031   1.482       .  S
C2028      C2029   1.411       .  A
C2029      C2030   1.409       .  A
C2029     Br2037   1.929       .  S
C2030     Br2041   1.928       .  S
C2031      C2032   1.409       .  A
C2031      C2036   1.404       .  A
C2032      C2033   1.410       .  A
C2032     Br2043   1.931       .  S
C2033      C2034   1.419       .  A
C2033     Br2039   1.933       .  S
C2034      C2035   1.421       .  A
C2035      C2036   1.403       .  A
C2035     Br2044   1.937       .  S
C2036     Br2040   1.934       .  S
C2045      C2046   1.418       .  A
C2045      C2050   1.412       .  A
C2046      C2047   1.408       .  A
C2046     Br2058   1.934       .  S
C2047      C2048   1.406       .  A
C2047     Br2062   1.931       .  S
C2048      C2051   1.488       .  S
C2048      C2049   1.410       .  A
C2049      C2050   1.410       .  A
C2049     Br2057   1.930       .  S
C2050     Br2061   1.930       .  S
C2051      C2052   1.410       .  A
C2051      C2056   1.406       .  A
C2052      C2053   1.412       .  A
C2052     Br2063   1.928       .  S
C2053      C2054   1.413       .  A
C2053     Br2059   1.930       .  S
C2054      C2055   1.419       .  A
C2055      C2056   1.406       .  A
C2055     Br2064   1.935       .  S
C2056     Br2060   1.932       .  S
C2065      C2066   1.418       .  A
C2065      C2070   1.415       .  A
C2066      C2067   1.411       .  A
C2066     Br2078   1.933       .  S
C2067      C2068   1.409       .  A
C2067     Br2082   1.931       .  S
C2068      C2071   1.491       .  S
C2068      C2069   1.410       .  A
C2069      C2070   1.408       .  A
C2069     Br2077   1.932       .  S
C2070     Br2081   1.933       .  S
C2071      C2072   1.411       .  A
C2071      C2076   1.412       .  A
C2072      C2073   1.410       .  A
C2072     Br2083   1.929       .  S
C2073      C2074   1.412       .  A
C2073     Br2079   1.930       .  S
C2074      C2075   1.408       .  A
C2075      C2076   1.407       .  A
C2075     Br2084   1.930       .  S
C2076     Br2080   1.931       .  S
C2085      C2086   1.408       .  A
C2085      C2090   1.410       .  A
C2086      C2087   1.406       .  A
C2086     Br2098   1.929       .  S
C2087      C2088   1.410       .  A
C2087     Br2102   1.929       .  S
C2088      C2091   1.486       .  S
C2088      C2089   1.410       .  A
C2089      C2090   1.409       .  A
C2089     Br2097   1.929       .  S
C2090     Br2101   1.930       .  S
C2091      C2092   1.411       .  A
C2091      C2096   1.408       .  A
C2092      C2093   1.409       .  A
C2092     Br2103   1.929       .  S
C2093      C2094   1.409       .  A
C2093     Br2099   1.928       .  S
C2094      C2095   1.412       .  A
C2095      C2096   1.407       .  A
C2095     Br2104   1.932       .  S
C2096     Br2100   1.930       .  S
C2105      C2106   1.412       .  A
C2105      C2110   1.409       .  A
C2106      C2107   1.409       .  A
C2106     Br2118   1.930       .  S
C2107      C2108   1.409       .  A
C2107     Br2122   1.929       .  S
C2108      C2111   1.482       .  S
C2108      C2109   1.409       .  A
C2109      C2110   1.404       .  A
C2109     Br2117   1.932       .  S
C2110     Br2121   1.927       .  S
C2111      C2112   1.410       .  A
C2111      C2116   1.408       .  A
C2112      C2113   1.407       .  A
C2112     Br2123   1.930       .  S
C2113      C2114   1.412       .  A
C2113     Br2119   1.932       .  S
C2114      C2115   1.410       .  A
C2115      C2116   1.405       .  A
C2115     Br2124   1.931       .  S
C2116     Br2120   1.929       .  S
C2125      C2126   1.411       .  A
C2125      C2130   1.417       .  A
C2126      C2127   1.411       .  A
C2126     Br2138   1.928       .  S
C2127      C2128   1.411       .  A
C2127     Br2142   1.929       .  S
C2128      C2131   1.487       .  S
C2128      C2129   1.407       .  A
C2129      C2130   1.405       .  A
C2129     Br2137   1.933       .  S
C2130     Br2141   1.934       .  S
C2131      C2132   1.408       .  A
C2131      C2136   1.410       .  A
C2132      C2133   1.405       .  A
C2132     Br2143   1.931       .  S
C2133      C2134   1.413       .  A
C2133     Br2139   1.933       .  S
C2134      C2135   1.415       .  A
C2135      C2136   1.411       .  A
C2135     Br2144   1.931       .  S
C2136     Br2140   1.930       .  S
C2145      C2146   1.417       .  A
C2145      C2150   1.411       .  A
C2146      C2147   1.410       .  A
C2146     Br2158   1.934       .  S
C2147      C2148   1.409       .  A
C2147     Br2162   1.931   1_655  S
C2148      C2151   1.495   1_655  S
C2148      C2149   1.412       .  A
C2149      C2150   1.412       .  A
C2149     Br2157   1.929       .  S
C2150     Br2161   1.929       .  S
C2151      C2152   1.412       .  A
C2151      C2156   1.409       .  A
C2152      C2153   1.412       .  A
C2152     Br2163   1.930       .  S
C2153      C2154   1.412       .  A
C2153     Br2159   1.930       .  S
C2154      C2155   1.417       .  A
C2155      C2156   1.411       .  A
C2155     Br2164   1.933       .  S
C2156     Br2160   1.930       .  S
C2165      C2166   1.414       .  A
C2165      C2170   1.413       .  A
C2166      C2167   1.409       .  A
C2166     Br2178   1.932       .  S
C2167      C2168   1.408       .  A
C2167     Br2182   1.929       .  S
C2168      C2171   1.483       .  S
C2168      C2169   1.408       .  A
C2169      C2170   1.406       .  A
C2169     Br2177   1.931       .  S
C2170     Br2181   1.931       .  S
C2171      C2172   1.407       .  A
C2171      C2176   1.410       .  A
C2172      C2173   1.404       .  A
C2172     Br2183   1.931       .  S
C2173      C2174   1.412       .  A
C2173     Br2179   1.933       .  S
C2174      C2175   1.412       .  A
C2175      C2176   1.410       .  A
C2175     Br2184   1.929       .  S
C2176     Br2180   1.928       .  S
C2185      C2186   1.416       .  A
C2185      C2190   1.411       .  A
C2186      C2187   1.413       .  A
C2186     Br2198   1.932       .  S
C2187      C2188   1.409       .  A
C2187     Br2202   1.928       .  S
C2188      C2191   1.488       .  S
C2188      C2189   1.408       .  A
C2189      C2190   1.406       .  A
C2189     Br2197   1.932       .  S
C2190     Br2201   1.928       .  S
C2191      C2192   1.408       .  A
C2191      C2196   1.409       .  A
C2192      C2193   1.410       .  A
C2192     Br2203   1.929       .  S
C2193      C2194   1.416       .  A
C2193     Br2199   1.932       .  S
C2194      C2195   1.412       .  A
C2195      C2196   1.409       .  A
C2195     Br2204   1.930       .  S
C2196     Br2200   1.930       .  S
C2205      C2206   1.415       .  A
C2205      C2210   1.417       .  A
C2206      C2207   1.407       .  A
C2206     Br2218   1.929       .  S
C2207      C2208   1.407       .  A
C2207     Br2222   1.932       .  S
C2208      C2211   1.484       .  S
C2208      C2209   1.407       .  A
C2209      C2210   1.409       .  A
C2209     Br2217   1.929       .  S
C2210     Br2221   1.932       .  S
C2211      C2212   1.406       .  A
C2211      C2216   1.410       .  A
C2212      C2213   1.405       .  A
C2212     Br2223   1.932       .  S
C2213      C2214   1.412       .  A
C2213     Br2219   1.922       .  S
C2214      C2215   1.412       .  A
C2215      C2216   1.410       .  A
C2215     Br2224   1.930       .  S
C2216     Br2220   1.929       .  S
C2225      C2226   1.410       .  A
C2225      C2230   1.409       .  A
C2226      C2227   1.407       .  A
C2226     Br2238   1.930   1_455  S
C2227      C2228   1.409       .  A
C2227     Br2242   1.929   1_455  S
C2228      C2231   1.480       .  S
C2228      C2229   1.406       .  A
C2229      C2230   1.405       .  A
C2229     Br2237   1.930       .  S
C2230     Br2241   1.922       .  S
C2231      C2232   1.407       .  A
C2231      C2236   1.406       .  A
C2232      C2233   1.404       .  A
C2232     Br2243   1.932       .  S
C2233      C2234   1.415       .  A
C2233     Br2239   1.933       .  S
C2234      C2235   1.419       .  A
C2235      C2236   1.409       .  A
C2235     Br2244   1.931       .  S
C2236     Br2240   1.930       .  S
C2245      C2246   1.416       .  A
C2245      C2250   1.414       .  A
C2246      C2247   1.404       .  A
C2246     Br2258   1.935       .  S
C2247      C2248   1.407       .  A
C2247     Br2262   1.932       .  S
C2248      C2251   1.486       .  S
C2248      C2249   1.411       .  A
C2249      C2250   1.410       .  A
C2249     Br2257   1.931       .  S
C2250     Br2261   1.929       .  S
C2251      C2252   1.410       .  A
C2251      C2256   1.409       .  A
C2252      C2253   1.408       .  A
C2252     Br2263   1.930       .  S
C2253      C2254   1.411       .  A
C2253     Br2259   1.930       .  S
C2254      C2255   1.412       .  A
C2255      C2256   1.407       .  A
C2255     Br2264   1.930       .  S
C2256     Br2260   1.932       .  S
C2265      C2266   1.416       .  A
C2265      C2270   1.416       .  A
C2266      C2267   1.407       .  A
C2266     Br2278   1.929       .  S
C2267      C2268   1.406       .  A
C2267     Br2282   1.931       .  S
C2268      C2271   1.489       .  S
C2268      C2269   1.410       .  A
C2269      C2270   1.412       .  A
C2269     Br2277   1.930       .  S
C2270     Br2281   1.930       .  S
C2271      C2272   1.408       .  A
C2271      C2276   1.412       .  A
C2272      C2273   1.407       .  A
C2272     Br2283   1.931       .  S
C2273      C2274   1.413       .  A
C2273     Br2279   1.930       .  S
C2274      C2275   1.409       .  A
C2275      C2276   1.412       .  A
C2275     Br2284   1.928       .  S
C2276     Br2280   1.928       .  S
C2285      C2286   1.414       .  A
C2285      C2290   1.411       .  A
C2286      C2287   1.405       .  A
C2286     Br2298   1.934       .  S
C2287      C2288   1.408       .  A
C2287     Br2302   1.933   1_655  S
C2288      C2291   1.485       .  S
C2288      C2289   1.411       .  A
C2289      C2290   1.410       .  A
C2289     Br2297   1.929       .  S
C2290     Br2301   1.927       .  S
C2291      C2292   1.406       .  A
C2291      C2296   1.409       .  A
C2292      C2293   1.403       .  A
C2292     Br2303   1.933       .  S
C2293      C2294   1.418       .  A
C2293     Br2299   1.937       .  S
C2294      C2295   1.417       .  A
C2295      C2296   1.412       .  A
C2295     Br2304   1.931   1_655  S
C2296     Br2300   1.930       .  S
C2305      C2306   1.414       .  A
C2305      C2310   1.410       .  A
C2306      C2307   1.412       .  A
C2306     Br2318   1.930       .  S
C2307      C2308   1.409       .  A
C2307     Br2322   1.928       .  S
C2308      C2311   1.488       .  S
C2308      C2309   1.410       .  A
C2309      C2310   1.405       .  A
C2309     Br2317   1.932       .  S
C2310     Br2321   1.932       .  S
C2311      C2312   1.409       .  A
C2311      C2316   1.409       .  A
C2312      C2313   1.410       .  A
C2312     Br2323   1.929       .  S
C2313      C2314   1.413       .  A
C2313     Br2319   1.930       .  S
C2314      C2315   1.410       .  A
C2315      C2316   1.407       .  A
C2315     Br2324   1.930       .  S
C2316     Br2320   1.929       .  S
C2325      C2326   1.420       .  A
C2325      C2330   1.422       .  A
C2326      C2327   1.416       .  A
C2326     Br2338   1.931       .  S
C2327      C2328   1.411       .  A
C2327     Br2342   1.930       .  S
C2328      C2331   1.497       .  S
C2328      C2329   1.409       .  A
C2329      C2330   1.407       .  A
C2329     Br2337   1.936       .  S
C2330     Br2341   1.938       .  S
C2331      C2332   1.414       .  A
C2331      C2336   1.408       .  A
C2332      C2333   1.416       .  A
C2332     Br2343   1.928       .  S
C2333      C2334   1.411       .  A
C2333     Br2339   1.927       .  S
C2334      C2335   1.418       .  A
C2335      C2336   1.406       .  A
C2335     Br2344   1.931       .  S
C2336     Br2340   1.934       .  S
C2345      C2346   1.406       .  A
C2345      C2350   1.408       .  A
C2346      C2347   1.406       .  A
C2346     Br2358   1.928       .  S
C2347      C2348   1.411       .  A
C2347     Br2362   1.929       .  S
C2348      C2351   1.480       .  S
C2348      C2349   1.408       .  A
C2349      C2350   1.404       .  A
C2349     Br2357   1.929       .  S
C2350     Br2361   1.931       .  S
C2351      C2352   1.408       .  A
C2351      C2356   1.409       .  A
C2352      C2353   1.406       .  A
C2352     Br2363   1.929       .  S
C2353      C2354   1.409       .  A
C2353     Br2359   1.925       .  S
C2354      C2355   1.408       .  A
C2355      C2356   1.405       .  A
C2355     Br2364   1.929       .  S
C2356     Br2360   1.930       .  S
C2365      C2366   1.412       .  A
C2365      C2370   1.408       .  A
C2366      C2367   1.410       .  A
C2366     Br2378   1.930       .  S
C2367      C2368   1.409       .  A
C2367     Br2382   1.928       .  S
C2368      C2371   1.483       .  S
C2368      C2369   1.408       .  A
C2369      C2370   1.404       .  A
C2369     Br2377   1.931   1_455  S
C2370     Br2381   1.924   1_455  S
C2371      C2372   1.409       .  A
C2371      C2376   1.409       .  A
C2372      C2373   1.410       .  A
C2372     Br2383   1.929       .  S
C2373      C2374   1.414       .  A
C2373     Br2379   1.930       .  S
C2374      C2375   1.408       .  A
C2375      C2376   1.404       .  A
C2375     Br2384   1.928       .  S
C2376     Br2380   1.931       .  S
C2385      C2386   1.416       .  A
C2385      C2390   1.411       .  A
C2386      C2387   1.403       .  A
C2386     Br2398   1.935       .  S
C2387      C2388   1.407       .  A
C2387     Br2402   1.934       .  S
C2388      C2391   1.483       .  S
C2388      C2389   1.410       .  A
C2389      C2390   1.409       .  A
C2389     Br2397   1.929       .  S
C2390     Br2401   1.930       .  S
C2391      C2392   1.409       .  A
C2391      C2396   1.406       .  A
C2392      C2393   1.409       .  A
C2392     Br2403   1.930       .  S
C2393      C2394   1.414       .  A
C2393     Br2399   1.928       .  S
C2394      C2395   1.417       .  A
C2395      C2396   1.405       .  A
C2395     Br2404   1.934       .  S
C2396     Br2400   1.933       .  S
C2405      C2406   1.416       .  A
C2405      C2410   1.412       .  A
C2406      C2407   1.408       .  A
C2406     Br2418   1.935       .  S
C2407      C2408   1.409       .  A
C2407     Br2422   1.932       .  S
C2408      C2411   1.491       .  S
C2408      C2409   1.411       .  A
C2409      C2410   1.411       .  A
C2409     Br2417   1.931       .  S
C2410     Br2421   1.930       .  S
C2411      C2412   1.412       .  A
C2411      C2416   1.408       .  A
C2412      C2413   1.411       .  A
C2412     Br2423   1.931       .  S
C2413      C2414   1.414       .  A
C2413     Br2419   1.932       .  S
C2414      C2415   1.416       .  A
C2415      C2416   1.408       .  A
C2415     Br2424   1.933       .  S
C2416     Br2420   1.931       .  S
C2425      C2426   1.417       .  A
C2425      C2430   1.412       .  A
C2426      C2427   1.409       .  A
C2426     Br2438   1.935       .  S
C2427      C2428   1.409       .  A
C2427     Br2442   1.931       .  S
C2428      C2431   1.497       .  S
C2428      C2429   1.413       .  A
C2429      C2430   1.415       .  A
C2429     Br2437   1.928       .  S
C2430     Br2441   1.927       .  S
C2431      C2432   1.408       .  A
C2431      C2436   1.411       .  A
C2432      C2433   1.409       .  A
C2432     Br2443   1.933       .  S
C2433      C2434   1.420       .  A
C2433     Br2439   1.935       .  S
C2434      C2435   1.415       .  A
C2435      C2436   1.416       .  A
C2435     Br2444   1.924       .  S
C2436     Br2440   1.929       .  S
C2445      C2446   1.413       .  A
C2445      C2450   1.411       .  A
C2446      C2447   1.406       .  A
C2446     Br2458   1.933       .  S
C2447      C2448   1.407       .  A
C2447     Br2462   1.931       .  S
C2448      C2451   1.483       .  S
C2448      C2449   1.409       .  A
C2449      C2450   1.408       .  A
C2449     Br2457   1.929   1_455  S
C2450     Br2461   1.929       .  S
C2451      C2452   1.409       .  A
C2451      C2456   1.409       .  A
C2452      C2453   1.408       .  A
C2452     Br2463   1.929       .  S
C2453      C2454   1.413       .  A
C2453     Br2459   1.932       .  S
C2454      C2455   1.411       .  A
C2455      C2456   1.406       .  A
C2455     Br2464   1.931       .  S
C2456     Br2460   1.931       .  S
C2465      C2466   1.421       .  A
C2465      C2470   1.415   1_565  A
C2466      C2467   1.406       .  A
C2466     Br2478   1.936       .  S
C2467      C2468   1.405       .  A
C2467     Br2482   1.932       .  S
C2468      C2471   1.486       .  S
C2468      C2469   1.409   1_565  A
C2469      C2470   1.411       .  A
C2469     Br2477   1.929       .  S
C2470     Br2481   1.931       .  S
C2471      C2472   1.407       .  A
C2471      C2476   1.408   1_565  A
C2472      C2473   1.408       .  A
C2472     Br2483   1.930       .  S
C2473      C2474   1.416       .  A
C2473     Br2479   1.932       .  S
C2474      C2475   1.415   1_565  A
C2475      C2476   1.409       .  A
C2475     Br2484   1.928   1_655  S
C2476     Br2480   1.931       .  S
C2485      C2486   1.414       .  A
C2485      C2490   1.412   1_545  A
C2486      C2487   1.404       .  A
C2486     Br2498   1.932       .  S
C2487      C2488   1.407       .  A
C2487     Br2502   1.932       .  S
C2488      C2491   1.483       .  S
C2488      C2489   1.410   1_545  A
C2489      C2490   1.409       .  A
C2489     Br2497   1.929       .  S
C2490     Br2501   1.930       .  S
C2491      C2492   1.410   1_545  A
C2491      C2496   1.406       .  A
C2492      C2493   1.409       .  A
C2492     Br2503   1.930       .  S
C2493      C2494   1.412   1_565  A
C2493     Br2499   1.931       .  S
C2494      C2495   1.417       .  A
C2495      C2496   1.405       .  A
C2495     Br2504   1.935       .  S
C2496     Br2500   1.933       .  S
C2505      C2506   1.412   1_545  A
C2505      C2510   1.412       .  A
C2506      C2507   1.407       .  A
C2506     Br2518   1.930       .  S
C2507      C2508   1.409   1_565  A
C2507     Br2522   1.931       .  S
C2508      C2511   1.484   1_544  S
C2508      C2509   1.409       .  A
C2509      C2510   1.408       .  A
C2509     Br2517   1.930       .  S
C2510     Br2521   1.929       .  S
C2511      C2512   1.410   1_565  A
C2511      C2516   1.404       .  A
C2512      C2513   1.411       .  A
C2512     Br2523   1.928       .  S
C2513      C2514   1.412   1_545  A
C2513     Br2519   1.930       .  S
C2514      C2515   1.420       .  A
C2515      C2516   1.405       .  A
C2515     Br2524   1.932       .  S
C2516     Br2520   1.935       .  S
C2525      C2526   1.412   1_545  A
C2525      C2530   1.409       .  A
C2526      C2527   1.408       .  A
C2526     Br2538   1.932       .  S
C2527      C2528   1.409   1_565  A
C2527     Br2542   1.929       .  S
C2528      C2531   1.484       .  S
C2528      C2529   1.409       .  A
C2529      C2530   1.406       .  A
C2529     Br2537   1.929       .  S
C2530     Br2541   1.930       .  S
C2531      C2532   1.411       .  A
C2531      C2536   1.408   1_545  A
C2532      C2533   1.411       .  A
C2532     Br2543   1.928       .  S
C2533      C2534   1.410       .  A
C2533     Br2539   1.928       .  S
C2534      C2535   1.410   1_545  A
C2535      C2536   1.404       .  A
C2535     Br2544   1.931       .  S
C2536     Br2540   1.932       .  S
C2545      C2546   1.420       .  A
C2545      C2550   1.418   1_545  A
C2546      C2547   1.402       .  A
C2546     Br2558   1.930       .  S
C2547      C2548   1.403       .  A
C2547     Br2562   1.936       .  S
C2548      C2551   1.483   1_554  S
C2548      C2549   1.410   1_545  A
C2549      C2550   1.412       .  A
C2549     Br2557   1.930       .  S
C2550     Br2561   1.932       .  S
C2551      C2552   1.409       .  A
C2551      C2556   1.412   1_545  A
C2552      C2553   1.404       .  A
C2552     Br2563   1.932       .  S
C2553      C2554   1.409       .  A
C2553     Br2559   1.929       .  S
C2554      C2555   1.406   1_545  A
C2555      C2556   1.409       .  A
C2555     Br2564   1.926       .  S
C2556     Br2560   1.929       .  S
C2565      C2566   1.411   1_545  A
C2565      C2570   1.414       .  A
C2566      C2567   1.410       .  A
C2566     Br2578   1.928       .  S
C2567      C2568   1.410       .  A
C2567     Br2582   1.929       .  S
C2568      C2571   1.487       .  S
C2568      C2569   1.408   1_565  A
C2569      C2570   1.407       .  A
C2569     Br2577   1.931       .  S
C2570     Br2581   1.933       .  S
C2571      C2572   1.407   1_665  A
C2571      C2576   1.410   1_655  A
C2572      C2573   1.407       .  A
C2572     Br2583   1.932   1_455  S
C2573      C2574   1.415   1_545  A
C2573     Br2579   1.930       .  S
C2574      C2575   1.412       .  A
C2575      C2576   1.410       .  A
C2575     Br2584   1.930       .  S
C2576     Br2580   1.929   1_455  S
C2585      C2586   1.412       .  A
C2585      C2590   1.415   1_565  A
C2586      C2587   1.412       .  A
C2586     Br2598   1.929       .  S
C2587      C2588   1.411       .  A
C2587     Br2602   1.928       .  S
C2588      C2591   1.484       .  S
C2588      C2589   1.405   1_565  A
C2589      C2590   1.402       .  A
C2589     Br2597   1.933       .  S
C2590     Br2601   1.934       .  S
C2591      C2592   1.408   1_565  A
C2591      C2596   1.410       .  A
C2592      C2593   1.406       .  A
C2592     Br2603   1.931       .  S
C2593      C2594   1.412   1_545  A
C2593     Br2599   1.931       .  S
C2594      C2595   1.410       .  A
C2595      C2596   1.410       .  A
C2595     Br2604   1.928       .  S
C2596     Br2600   1.929       .  S
C2605      C2606   1.411   1_545  A
C2605      C2610   1.410       .  A
C2606      C2607   1.406       .  A
C2606     Br2618   1.930       .  S
C2607      C2608   1.408   1_565  A
C2607     Br2622   1.930       .  S
C2608      C2611   1.481       .  S
C2608      C2609   1.408       .  A
C2609      C2610   1.407       .  A
C2609     Br2617   1.929       .  S
C2610     Br2621   1.927       .  S
C2611      C2612   1.410       .  A
C2611      C2616   1.406       .  A
C2612      C2613   1.408       .  A
C2612     Br2623   1.929       .  S
C2613      C2614   1.409       .  A
C2613     Br2619   1.929       .  S
C2614      C2615   1.413       .  A
C2615      C2616   1.404       .  A
C2615     Br2624   1.932   1_545  S
C2616     Br2620   1.931   1_545  S
C2625      C2626   1.425       .  A
C2625      C2630   1.424       .  A
C2626      C2627   1.409       .  A
C2626     Br2638   1.933       .  S
C2627      C2628   1.405       .  A
C2627     Br2642   1.934       .  S
C2628      C2631   1.493       .  S
C2628      C2629   1.406       .  A
C2629      C2630   1.415       .  A
C2629     Br2637   1.931       .  S
C2630     Br2641   1.931       .  S
C2631      C2632   1.412       .  A
C2631      C2636   1.408       .  A
C2632      C2633   1.413       .  A
C2632     Br2643   1.927   1_455  S
C2633      C2634   1.409       .  A
C2633     Br2639   1.928   1_455  S
C2634      C2635   1.412       .  A
C2635      C2636   1.408       .  A
C2635     Br2644   1.925       .  S
C2636     Br2640   1.931       .  S
C2645      C2646   1.410       .  A
C2645      C2650   1.413       .  A
C2646      C2647   1.411       .  A
C2646     Br2658   1.929       .  S
C2647      C2648   1.412       .  A
C2647     Br2662   1.928       .  S
C2648      C2651   1.489       .  S
C2648      C2649   1.409       .  A
C2649      C2650   1.406       .  A
C2649     Br2657   1.931       .  S
C2650     Br2661   1.933       .  S
C2651      C2652   1.408       .  A
C2651      C2656   1.412       .  A
C2652      C2653   1.408       .  A
C2652     Br2663   1.931       .  S
C2653      C2654   1.414       .  A
C2653     Br2659   1.931       .  S
C2654      C2655   1.411       .  A
C2655      C2656   1.410       .  A
C2655     Br2664   1.931       .  S
C2656     Br2660   1.930       .  S
C2665      C2666   1.410       .  A
C2665      C2670   1.414       .  A
C2666      C2667   1.410       .  A
C2666     Br2678   1.929       .  S
C2667      C2668   1.411       .  A
C2667     Br2682   1.929       .  S
C2668      C2671   1.485       .  S
C2668      C2669   1.407       .  A
C2669      C2670   1.405       .  A
C2669     Br2677   1.931       .  S
C2670     Br2681   1.934       .  S
C2671      C2672   1.408       .  A
C2671      C2676   1.404       .  A
C2672      C2673   1.412       .  A
C2672     Br2683   1.932       .  S
C2673      C2674   1.422       .  A
C2673     Br2679   1.935       .  S
C2674      C2675   1.420       .  A
C2675      C2676   1.406       .  A
C2675     Br2684   1.935       .  S
C2676     Br2680   1.933       .  S
C2685      C2686   1.412       .  A
C2685      C2690   1.417       .  A
C2686      C2687   1.407       .  A
C2686     Br2698   1.932       .  S
C2687      C2688   1.409       .  A
C2687     Br2702   1.931       .  S
C2688      C2691   1.485       .  S
C2688      C2689   1.407       .  A
C2689      C2690   1.409       .  A
C2689     Br2697   1.930       .  S
C2690     Br2701   1.932       .  S
C2691      C2692   1.410       .  A
C2691      C2696   1.408       .  A
C2692      C2693   1.407       .  A
C2692     Br2703   1.929       .  S
C2693      C2694   1.409       .  A
C2693     Br2699   1.930       .  S
C2694      C2695   1.413       .  A
C2695      C2696   1.408       .  A
C2695     Br2704   1.931       .  S
C2696     Br2700   1.930       .  S
C2705      C2706   1.425       .  A
C2705      C2710   1.414       .  A
C2706      C2707   1.406       .  A
C2706     Br2718   1.930       .  S
C2707      C2708   1.403       .  A
C2707     Br2722   1.936       .  S
C2708      C2711   1.494   1_556  S
C2708      C2709   1.412       .  A
C2709      C2710   1.417       .  A
C2709     Br2717   1.927       .  S
C2710     Br2721   1.928       .  S
C2711      C2712   1.410       .  A
C2711      C2716   1.411       .  A
C2712      C2713   1.410       .  A
C2712     Br2723   1.929       .  S
C2713      C2714   1.411       .  A
C2713     Br2719   1.928       .  S
C2714      C2715   1.412       .  A
C2715      C2716   1.413       .  A
C2715     Br2724   1.928       .  S
C2716     Br2720   1.929       .  S
C2725      C2726   1.418       .  A
C2725      C2730   1.415       .  A
C2726      C2727   1.414       .  A
C2726     Br2738   1.931       .  S
C2727      C2728   1.410       .  A
C2727     Br2742   1.930       .  S
C2728      C2731   1.496       .  S
C2728      C2729   1.409       .  A
C2729      C2730   1.411       .  A
C2729     Br2737   1.930       .  S
C2730     Br2741   1.931       .  S
C2731      C2732   1.409       .  A
C2731      C2736   1.411       .  A
C2732      C2733   1.413       .  A
C2732     Br2743   1.929       .  S
C2733      C2734   1.417       .  A
C2733     Br2739   1.931       .  S
C2734      C2735   1.413       .  A
C2735      C2736   1.411       .  A
C2735     Br2744   1.928       .  S
C2736     Br2740   1.931       .  S
C2745      C2746   1.417       .  A
C2745      C2750   1.420       .  A
C2746      C2747   1.408       .  A
C2746     Br2758   1.930       .  S
C2747      C2748   1.408       .  A
C2747     Br2762   1.933       .  S
C2748      C2751   1.489       .  S
C2748      C2749   1.408       .  A
C2749      C2750   1.411       .  A
C2749     Br2757   1.931       .  S
C2750     Br2761   1.933       .  S
C2751      C2752   1.408       .  A
C2751      C2756   1.411       .  A
C2752      C2753   1.407       .  A
C2752     Br2763   1.931   1_655  S
C2753      C2754   1.415       .  A
C2753     Br2759   1.933   1_655  S
C2754      C2755   1.411       .  A
C2755      C2756   1.410       .  A
C2755     Br2764   1.929       .  S
C2756     Br2760   1.929       .  S
C2765      C2766   1.414       .  A
C2765      C2770   1.413       .  A
C2766      C2767   1.408       .  A
C2766     Br2778   1.929       .  S
C2767      C2768   1.408       .  A
C2767     Br2782   1.931       .  S
C2768      C2771   1.487   1_554  S
C2768      C2769   1.409       .  A
C2769      C2770   1.410       .  A
C2769     Br2777   1.929       .  S
C2770     Br2781   1.930       .  S
C2771      C2772   1.404       .  A
C2771      C2776   1.411       .  A
C2772      C2773   1.404       .  A
C2772     Br2783   1.934       .  S
C2773      C2774   1.420       .  A
C2773     Br2779   1.932       .  S
C2774      C2775   1.413       .  A
C2775      C2776   1.414       .  A
C2775     Br2784   1.930       .  S
C2776     Br2780   1.928       .  S
C2785      C2786   1.420       .  A
C2785      C2790   1.420       .  A
C2786      C2787   1.407       .  A
C2786     Br2798   1.934       .  S
C2787      C2788   1.405       .  A
C2787     Br2802   1.932       .  S
C2788      C2791   1.487       .  S
C2788      C2789   1.409       .  A
C2789      C2790   1.411       .  A
C2789     Br2797   1.932       .  S
C2790     Br2801   1.931       .  S
C2791      C2792   1.412       .  A
C2791      C2796   1.407       .  A
C2792      C2793   1.410       .  A
C2792     Br2803   1.929       .  S
C2793      C2794   1.410       .  A
C2793     Br2799   1.929       .  S
C2794      C2795   1.417       .  A
C2795      C2796   1.406       .  A
C2795     Br2804   1.934       .  S
C2796     Br2800   1.932       .  S
C2805      C2806   1.418       .  A
C2805      C2810   1.415       .  A
C2806      C2807   1.402       .  A
C2806     Br2818   1.936       .  S
C2807      C2808   1.404       .  A
C2807     Br2822   1.933       .  S
C2808      C2811   1.481       .  S
C2808      C2809   1.409       .  A
C2809      C2810   1.411       .  A
C2809     Br2817   1.929       .  S
C2810     Br2821   1.930       .  S
C2811      C2812   1.408       .  A
C2811      C2816   1.407       .  A
C2812      C2813   1.408       .  A
C2812     Br2823   1.929       .  S
C2813      C2814   1.413       .  A
C2813     Br2819   1.932       .  S
C2814      C2815   1.414       .  A
C2815      C2816   1.405       .  A
C2815     Br2824   1.933       .  S
C2816     Br2820   1.932       .  S
C2825      C2826   1.414       .  A
C2825      C2830   1.412       .  A
C2826      C2827   1.415       .  A
C2826     Br2838   1.930       .  S
C2827      C2828   1.412       .  A
C2827     Br2842   1.928       .  S
C2828      C2831   1.502       .  S
C2828      C2829   1.412       .  A
C2829      C2830   1.413       .  A
C2829     Br2837   1.929       .  S
C2830     Br2841   1.930       .  S
C2831      C2832   1.412       .  A
C2831      C2836   1.412       .  A
C2832      C2833   1.415       .  A
C2832     Br2843   1.929       .  S
C2833      C2834   1.415       .  A
C2833     Br2839   1.930       .  S
C2834      C2835   1.411       .  A
C2835      C2836   1.414       .  A
C2835     Br2844   1.928       .  S
C2836     Br2840   1.928       .  S
C2845      C2846   1.416       .  A
C2845      C2850   1.412       .  A
C2846      C2847   1.408       .  A
C2846     Br2858   1.933       .  S
C2847      C2848   1.407       .  A
C2847     Br2862   1.931       .  S
C2848      C2851   1.485       .  S
C2848      C2849   1.408       .  A
C2849      C2850   1.408       .  A
C2849     Br2857   1.930       .  S
C2850     Br2861   1.929       .  S
C2851      C2852   1.410       .  A
C2851      C2856   1.407       .  A
C2852      C2853   1.409       .  A
C2852     Br2863   1.929       .  S
C2853      C2854   1.411       .  A
C2853     Br2859   1.929       .  S
C2854      C2855   1.414       .  A
C2855      C2856   1.407       .  A
C2855     Br2864   1.931       .  S
C2856     Br2860   1.931       .  S
C2865      C2866   1.414       .  A
C2865      C2870   1.414       .  A
C2866      C2867   1.406       .  A
C2866     Br2878   1.933       .  S
C2867      C2868   1.408       .  A
C2867     Br2882   1.932       .  S
C2868      C2871   1.487       .  S
C2868      C2869   1.410       .  A
C2869      C2870   1.411       .  A
C2869     Br2877   1.929       .  S
C2870     Br2881   1.931       .  S
C2871      C2872   1.410       .  A
C2871      C2876   1.411       .  A
C2872      C2873   1.408       .  A
C2872     Br2883   1.929       .  S
C2873      C2874   1.410       .  A
C2873     Br2879   1.929       .  S
C2874      C2875   1.407       .  A
C2875      C2876   1.407       .  A
C2875     Br2884   1.928       .  S
C2876     Br2880   1.930       .  S
C2885      C2886   1.421       .  A
C2885      C2890   1.421       .  A
C2886      C2887   1.412       .  A
C2886     Br2898   1.930       .  S
C2887      C2888   1.408       .  A
C2887     Br2902   1.930       .  S
C2888      C2891   1.488       .  S
C2888      C2889   1.407       .  A
C2889      C2890   1.406       .  A
C2889     Br2897   1.934       .  S
C2890     Br2901   1.937       .  S
C2891      C2892   1.411       .  A
C2891      C2896   1.408       .  A
C2892      C2893   1.411       .  A
C2892     Br2903   1.929       .  S
C2893      C2894   1.411       .  A
C2893     Br2899   1.926       .  S
C2894      C2895   1.413       .  A
C2895      C2896   1.407       .  A
C2895     Br2904   1.931       .  S
C2896     Br2900   1.931       .  S
C2905      C2906   1.412       .  A
C2905      C2910   1.419       .  A
C2906      C2907   1.412       .  A
C2906     Br2918   1.928       .  S
C2907      C2908   1.411       .  A
C2907     Br2922   1.929       .  S
C2908      C2911   1.486   1_655  S
C2908      C2909   1.405       .  A
C2909      C2910   1.406       .  A
C2909     Br2917   1.932       .  S
C2910     Br2921   1.935       .  S
C2911      C2912   1.408       .  A
C2911      C2916   1.410       .  A
C2912      C2913   1.407       .  A
C2912     Br2923   1.930       .  S
C2913      C2914   1.412       .  A
C2913     Br2919   1.930       .  S
C2914      C2915   1.411       .  A
C2915      C2916   1.409       .  A
C2915     Br2924   1.931       .  S
C2916     Br2920   1.928       .  S
C2925      C2926   1.421       .  A
C2925      C2930   1.428       .  A
C2926      C2927   1.411       .  A
C2926     Br2938   1.931       .  S
C2927      C2928   1.407       .  A
C2927     Br2942   1.932       .  S
C2928      C2931   1.485       .  S
C2928      C2929   1.401       .  A
C2929      C2930   1.407       .  A
C2929     Br2937   1.935       .  S
C2930     Br2941   1.938       .  S
C2931      C2932   1.410       .  A
C2931      C2936   1.407       .  A
C2932      C2933   1.409       .  A
C2932     Br2943   1.930       .  S
C2933      C2934   1.410       .  A
C2933     Br2939   1.929       .  S
C2934      C2935   1.412       .  A
C2935      C2936   1.406       .  A
C2935     Br2944   1.930       .  S
C2936     Br2940   1.930       .  S
C2945      C2946   1.418       .  A
C2945      C2950   1.413       .  A
C2946      C2947   1.404       .  A
C2946     Br2958   1.932       .  S
C2947      C2948   1.404       .  A
C2947     Br2962   1.933       .  S
C2948      C2951   1.489   1_556  S
C2948      C2949   1.412       .  A
C2949      C2950   1.415       .  A
C2949     Br2957   1.927       .  S
C2950     Br2961   1.929       .  S
C2951      C2952   1.409       .  A
C2951      C2956   1.410       .  A
C2952      C2953   1.407       .  A
C2952     Br2963   1.931       .  S
C2953      C2954   1.411       .  A
C2953     Br2959   1.928       .  S
C2954      C2955   1.415       .  A
C2955      C2956   1.412       .  A
C2955     Br2964   1.931       .  S
C2956     Br2960   1.929       .  S
C2965      C2966   1.416       .  A
C2965      C2970   1.415       .  A
C2966      C2967   1.411       .  A
C2966     Br2978   1.927       .  S
C2967      C2968   1.409       .  A
C2967     Br2982   1.931       .  S
C2968      C2971   1.488       .  S
C2968      C2969   1.408       .  A
C2969      C2970   1.406       .  A
C2969     Br2977   1.931       .  S
C2970     Br2981   1.934       .  S
C2971      C2972   1.410       .  A
C2971      C2976   1.408       .  A
C2972      C2973   1.413       .  A
C2972     Br2983   1.929       .  S
C2973      C2974   1.417       .  A
C2973     Br2979   1.930       .  S
C2974      C2975   1.417       .  A
C2975      C2976   1.404       .  A
C2975     Br2984   1.936       .  S
C2976     Br2980   1.933       .  S
C2985      C2986   1.414       .  A
C2985      C2990   1.415       .  A
C2986      C2987   1.407       .  A
C2986     Br2998   1.929       .  S
C2987      C2988   1.407       .  A
C2987     Br3002   1.931       .  S
C2988      C2991   1.476       .  S
C2988      C2989   1.405       .  A
C2989      C2990   1.403       .  A
C2989     Br2997   1.933       .  S
C2990     Br3001   1.932       .  S
C2991      C2992   1.406       .  A
C2991      C2996   1.409       .  A
C2992      C2993   1.402       .  A
C2992     Br3003   1.932       .  S
C2993      C2994   1.412       .  A
C2993     Br2999   1.933       .  S
C2994      C2995   1.410       .  A
C2995      C2996   1.407       .  A
C2995     Br3004   1.929       .  S
C2996     Br3000   1.929       .  S
C3005      C3006   1.413       .  A
C3005      C3010   1.413       .  A
C3006      C3007   1.408       .  A
C3006     Br3018   1.932       .  S
C3007      C3008   1.410       .  A
C3007     Br3022   1.932       .  S
C3008      C3011   1.491   1_556  S
C3008      C3009   1.411       .  A
C3009      C3010   1.411       .  A
C3009     Br3017   1.930       .  S
C3010     Br3021   1.931       .  S
C3011      C3012   1.414       .  A
C3011      C3016   1.407       .  A
C3012      C3013   1.414       .  A
C3012     Br3023   1.928       .  S
C3013      C3014   1.409       .  A
C3013     Br3019   1.927       .  S
C3014      C3015   1.414       .  A
C3015      C3016   1.404       .  A
C3015     Br3024   1.929       .  S
C3016     Br3020   1.932       .  S
C3025      C3026   1.418       .  A
C3025      C3030   1.419       .  A
C3026      C3027   1.407       .  A
C3026     Br3038   1.936       .  S
C3027      C3028   1.408       .  A
C3027     Br3042   1.933       .  S
C3028      C3031   1.494       .  S
C3028      C3029   1.411       .  A
C3029      C3030   1.416       .  A
C3029     Br3037   1.929       .  S
C3030     Br3041   1.930       .  S
C3031      C3032   1.410       .  A
C3031      C3036   1.411       .  A
C3032      C3033   1.410       .  A
C3032     Br3043   1.931       .  S
C3033      C3034   1.415       .  A
C3033     Br3039   1.933       .  S
C3034      C3035   1.412       .  A
C3035      C3036   1.412       .  A
C3035     Br3044   1.926       .  S
C3036     Br3040   1.929       .  S
C3045      C3046   1.418   1_455  A
C3045      C3050   1.414   1_455  A
C3046      C3047   1.406       .  A
C3046     Br3058   1.936   1_655  S
C3047      C3048   1.406       .  A
C3047     Br3062   1.931       .  S
C3048      C3051   1.486       .  S
C3048      C3049   1.410       .  A
C3049      C3050   1.410       .  A
C3049     Br3057   1.930       .  S
C3050     Br3061   1.931   1_655  S
C3051      C3052   1.410       .  A
C3051      C3056   1.409       .  A
C3052      C3053   1.409       .  A
C3052     Br3063   1.929       .  S
C3053      C3054   1.410       .  A
C3053     Br3059   1.929       .  S
C3054      C3055   1.411       .  A
C3055      C3056   1.408       .  A
C3055     Br3064   1.930       .  S
C3056     Br3060   1.930       .  S
C3065      C3066   1.422       .  A
C3065      C3070   1.417       .  A
C3066      C3067   1.408       .  A
C3066     Br3078   1.934       .  S
C3067      C3068   1.405       .  A
C3067     Br3082   1.933       .  S
C3068      C3071   1.486       .  S
C3068      C3069   1.408       .  A
C3069      C3070   1.411       .  A
C3069     Br3077   1.930       .  S
C3070     Br3081   1.932       .  S
C3071      C3072   1.410       .  A
C3071      C3076   1.408       .  A
C3072      C3073   1.410       .  A
C3072     Br3083   1.928       .  S
C3073      C3074   1.411       .  A
C3073     Br3079   1.930       .  S
C3074      C3075   1.415       .  A
C3075      C3076   1.406       .  A
C3075     Br3084   1.934       .  S
C3076     Br3080   1.931       .  S
C3085      C3086   1.412       .  A
C3085      C3090   1.414       .  A
C3086      C3087   1.411       .  A
C3086     Br3098   1.929       .  S
C3087      C3088   1.411       .  A
C3087     Br3102   1.929       .  S
C3088      C3091   1.493       .  S
C3088      C3089   1.409       .  A
C3089      C3090   1.411       .  A
C3089     Br3097   1.930       .  S
C3090     Br3101   1.929       .  S
C3091      C3092   1.408       .  A
C3091      C3096   1.413       .  A
C3092      C3093   1.407       .  A
C3092     Br3103   1.930       .  S
C3093      C3094   1.413       .  A
C3093     Br3099   1.932       .  S
C3094      C3095   1.411       .  A
C3095      C3096   1.414       .  A
C3095     Br3104   1.928       .  S
C3096     Br3100   1.927       .  S
C3105      C3106   1.414       .  A
C3105      C3110   1.414       .  A
C3106      C3107   1.412       .  A
C3106     Br3118   1.927       .  S
C3107      C3108   1.410       .  A
C3107     Br3122   1.929       .  S
C3108      C3111   1.490       .  S
C3108      C3109   1.409       .  A
C3109      C3110   1.406       .  A
C3109     Br3117   1.932   1_655  S
C3110     Br3121   1.934   1_655  S
C3111      C3112   1.409       .  A
C3111      C3116   1.407       .  A
C3112      C3113   1.413       .  A
C3112     Br3123   1.930       .  S
C3113      C3114   1.419       .  A
C3113     Br3119   1.930       .  S
C3114      C3115   1.418       .  A
C3115      C3116   1.406       .  A
C3115     Br3124   1.935       .  S
C3116     Br3120   1.932       .  S
C3125      C3126   1.416       .  A
C3125      C3130   1.412       .  A
C3126      C3127   1.410       .  A
C3126     Br3138   1.932       .  S
C3127      C3128   1.407       .  A
C3127     Br3142   1.930       .  S
C3128      C3131   1.487       .  S
C3128      C3129   1.410       .  A
C3129      C3130   1.408       .  A
C3129     Br3137   1.931       .  S
C3130     Br3141   1.930       .  S
C3131      C3132   1.409       .  A
C3131      C3136   1.409       .  A
C3132      C3133   1.408       .  A
C3132     Br3143   1.930       .  S
C3133      C3134   1.413       .  A
C3133     Br3139   1.931       .  S
C3134      C3135   1.412       .  A
C3135      C3136   1.408       .  A
C3135     Br3144   1.931       .  S
C3136     Br3140   1.929       .  S
C3145      C3146   1.408       .  A
C3145      C3150   1.410       .  A
C3146      C3147   1.409       .  A
C3146     Br3158   1.929       .  S
C3147      C3148   1.411       .  A
C3147     Br3162   1.929       .  S
C3148      C3151   1.489       .  S
C3148      C3149   1.409       .  A
C3149      C3150   1.409       .  A
C3149     Br3157   1.928       .  S
C3150     Br3161   1.925       .  S
C3151      C3152   1.407       .  A
C3151      C3156   1.408       .  A
C3152      C3153   1.413       .  A
C3152     Br3163   1.930       .  S
C3153      C3154   1.421       .  A
C3153     Br3159   1.932       .  S
C3154      C3155   1.417       .  A
C3155      C3156   1.407       .  A
C3155     Br3164   1.934       .  S
C3156     Br3160   1.933       .  S
C3165      C3166   1.419       .  A
C3165      C3170   1.416       .  A
C3166      C3167   1.407       .  A
C3166     Br3178   1.933       .  S
C3167      C3168   1.405       .  A
C3167     Br3182   1.932       .  S
C3168      C3171   1.489       .  S
C3168      C3169   1.410       .  A
C3169      C3170   1.413       .  A
C3169     Br3177   1.929       .  S
C3170     Br3181   1.929       .  S
C3171      C3172   1.411       .  A
C3171      C3176   1.407       .  A
C3172      C3173   1.411       .  A
C3172     Br3183   1.928       .  S
C3173      C3174   1.410       .  A
C3173     Br3179   1.929       .  S
C3174      C3175   1.416       .  A
C3175      C3176   1.407       .  A
C3175     Br3184   1.932       .  S
C3176     Br3180   1.931       .  S
C3185      C3186   1.409       .  A
C3185      C3190   1.416       .  A
C3186      C3187   1.412       .  A
C3186     Br3198   1.927       .  S
C3187      C3188   1.411       .  A
C3187     Br3202   1.927       .  S
C3188      C3191   1.486       .  S
C3188      C3189   1.405       .  A
C3189      C3190   1.404       .  A
C3189     Br3197   1.932       .  S
C3190     Br3201   1.930       .  S
C3191      C3192   1.406       .  A
C3191      C3196   1.410       .  A
C3192      C3193   1.407       .  A
C3192     Br3203   1.931       .  S
C3193      C3194   1.417       .  A
C3193     Br3199   1.933       .  S
C3194      C3195   1.414       .  A
C3195      C3196   1.410       .  A
C3195     Br3204   1.932       .  S
C3196     Br3200   1.930       .  S
C3205      C3206   1.412       .  A
C3205      C3210   1.410       .  A
C3206      C3207   1.407       .  A
C3206     Br3218   1.931       .  S
C3207      C3208   1.408       .  A
C3207     Br3222   1.929       .  S
C3208      C3211   1.476       .  S
C3208      C3209   1.408       .  A
C3209      C3210   1.401       .  A
C3209     Br3217   1.932       .  S
C3210     Br3221   1.933       .  S
C3211      C3212   1.405       .  A
C3211      C3216   1.410       .  A
C3212      C3213   1.402       .  A
C3212     Br3223   1.933       .  S
C3213      C3214   1.410       .  A
C3213     Br3219   1.924       .  S
C3214      C3215   1.408       .  A
C3215      C3216   1.407       .  A
C3215     Br3224   1.929       .  S
C3216     Br3220   1.929       .  S
C3225      C3226   1.417       .  A
C3225      C3230   1.413       .  A
C3226      C3227   1.409       .  A
C3226     Br3238   1.933       .  S
C3227      C3228   1.408       .  A
C3227     Br3242   1.931       .  S
C3228      C3231   1.487   1_556  S
C3228      C3229   1.410       .  A
C3229      C3230   1.408       .  A
C3229     Br3237   1.932       .  S
C3230     Br3241   1.930       .  S
C3231      C3232   1.412   1_455  A
C3231      C3236   1.405       .  A
C3232      C3233   1.412       .  A
C3232     Br3243   1.928       .  S
C3233      C3234   1.409       .  A
C3233     Br3239   1.928       .  S
C3234      C3235   1.415   1_655  A
C3235      C3236   1.405       .  A
C3235     Br3244   1.926       .  S
C3236     Br3240   1.933       .  S
C3245      C3246   1.416       .  A
C3245      C3250   1.416       .  A
C3246      C3247   1.410       .  A
C3246     Br3258   1.928   1_655  S
C3247      C3248   1.409       .  A
C3247     Br3262   1.931       .  S
C3248      C3251   1.487       .  S
C3248      C3249   1.409       .  A
C3249      C3250   1.407       .  A
C3249     Br3257   1.932       .  S
C3250     Br3261   1.934       .  S
C3251      C3252   1.410       .  A
C3251      C3256   1.409       .  A
C3252      C3253   1.410       .  A
C3252     Br3263   1.929       .  S
C3253      C3254   1.413       .  A
C3253     Br3259   1.927       .  S
C3254      C3255   1.416       .  A
C3255      C3256   1.405       .  A
C3255     Br3264   1.935   1_655  S
C3256     Br3260   1.933       .  S
C3265      C3266   1.414       .  A
C3265      C3270   1.416       .  A
C3266      C3267   1.411       .  A
C3266     Br3278   1.922       .  S
C3267      C3268   1.408       .  A
C3267     Br3282   1.930       .  S
C3268      C3271   1.493       .  S
C3268      C3269   1.410       .  A
C3269      C3270   1.411       .  A
C3269     Br3277   1.929       .  S
C3270     Br3281   1.934   1_455  S
C3271      C3272   1.409       .  A
C3271      C3276   1.411       .  A
C3272      C3273   1.413       .  A
C3272     Br3283   1.930       .  S
C3273      C3274   1.416       .  A
C3273     Br3279   1.929       .  S
C3274      C3275   1.410       .  A
C3275      C3276   1.411       .  A
C3275     Br3284   1.928       .  S
C3276     Br3280   1.929       .  S
C3285      C3286   1.410       .  A
C3285      C3290   1.412       .  A
C3286      C3287   1.406       .  A
C3286     Br3298   1.928       .  S
C3287      C3288   1.408       .  A
C3287     Br3302   1.930       .  S
C3288      C3291   1.479       .  S
C3288      C3289   1.407       .  A
C3289      C3290   1.406       .  A
C3289     Br3297   1.930       .  S
C3290     Br3301   1.931       .  S
C3291      C3292   1.406       .  A
C3291      C3296   1.410       .  A
C3292      C3293   1.403       .  A
C3292     Br3303   1.930   1_655  S
C3293      C3294   1.411       .  A
C3293     Br3299   1.932   1_655  S
C3294      C3295   1.409       .  A
C3295      C3296   1.407       .  A
C3295     Br3304   1.928       .  S
C3296     Br3300   1.929       .  S
C3305      C3306   1.416       .  A
C3305      C3310   1.417       .  A
C3306      C3307   1.412       .  A
C3306     Br3318   1.931       .  S
C3307      C3308   1.410       .  A
C3307     Br3322   1.930       .  S
C3308      C3311   1.492   1_556  S
C3308      C3309   1.408       .  A
C3309      C3310   1.409       .  A
C3309     Br3317   1.931       .  S
C3310     Br3321   1.932       .  S
C3311      C3312   1.406       .  A
C3311      C3316   1.413       .  A
C3312      C3313   1.407       .  A
C3312     Br3323   1.933       .  S
C3313      C3314   1.417       .  A
C3313     Br3319   1.930       .  S
C3314      C3315   1.410       .  A
C3315      C3316   1.415       .  A
C3315     Br3324   1.928       .  S
C3316     Br3320   1.927       .  S
C3325      C3326   1.411       .  A
C3325      C3330   1.413       .  A
C3326      C3327   1.406       .  A
C3326     Br3338   1.931       .  S
C3327      C3328   1.410       .  A
C3327     Br3342   1.931       .  S
C3328      C3331   1.487       .  S
C3328      C3329   1.409       .  A
C3329      C3330   1.410       .  A
C3329     Br3337   1.928       .  S
C3330     Br3341   1.930       .  S
C3331      C3332   1.407       .  A
C3331      C3336   1.410       .  A
C3332      C3333   1.409       .  A
C3332     Br3343   1.930       .  S
C3333      C3334   1.413       .  A
C3333     Br3339   1.921       .  S
C3334      C3335   1.412       .  A
C3335      C3336   1.408       .  A
C3335     Br3344   1.931       .  S
C3336     Br3340   1.931       .  S
C3345      C3346   1.414       .  A
C3345      C3350   1.415       .  A
C3346      C3347   1.408       .  A
C3346     Br3358   1.932       .  S
C3347      C3348   1.408       .  A
C3347     Br3362   1.930       .  S
C3348      C3351   1.484       .  S
C3348      C3349   1.407       .  A
C3349      C3350   1.407       .  A
C3349     Br3357   1.931       .  S
C3350     Br3361   1.931       .  S
C3351      C3352   1.406       .  A
C3351      C3356   1.409       .  A
C3352      C3353   1.406       .  A
C3352     Br3363   1.932       .  S
C3353      C3354   1.418       .  A
C3353     Br3359   1.934       .  S
C3354      C3355   1.412       .  A
C3355      C3356   1.409       .  A
C3355     Br3364   1.930       .  S
C3356     Br3360   1.929       .  S
C3365      C3366   1.419       .  A
C3365      C3370   1.426       .  A
C3366      C3367   1.410       .  A
C3366     Br3378   1.928       .  S
C3367      C3368   1.407       .  A
C3367     Br3382   1.932       .  S
C3368      C3371   1.486       .  S
C3368      C3369   1.404       .  A
C3369      C3370   1.409       .  A
C3369     Br3377   1.933       .  S
C3370     Br3381   1.937       .  S
C3371      C3372   1.410       .  A
C3371      C3376   1.408       .  A
C3372      C3373   1.409       .  A
C3372     Br3383   1.928       .  S
C3373      C3374   1.411       .  A
C3373     Br3379   1.930       .  S
C3374      C3375   1.413       .  A
C3375      C3376   1.406       .  A
C3375     Br3384   1.932       .  S
C3376     Br3380   1.931       .  S
C3385      C3386   1.411       .  A
C3385      C3390   1.414       .  A
C3386      C3387   1.407       .  A
C3386     Br3398   1.928       .  S
C3387      C3388   1.410       .  A
C3387     Br3402   1.931       .  S
C3388      C3391   1.487       .  S
C3388      C3389   1.409       .  A
C3389      C3390   1.409       .  A
C3389     Br3397   1.930       .  S
C3390     Br3401   1.931       .  S
C3391      C3392   1.411       .  A
C3391      C3396   1.408       .  A
C3392      C3393   1.407       .  A
C3392     Br3403   1.931       .  S
C3393      C3394   1.409       .  A
C3393     Br3399   1.930       .  S
C3394      C3395   1.414       .  A
C3395      C3396   1.408       .  A
C3395     Br3404   1.931       .  S
C3396     Br3400   1.930       .  S
C3405      C3406   1.408       .  A
C3405      C3410   1.409       .  A
C3406      C3407   1.405       .  A
C3406     Br3418   1.931       .  S
C3407      C3408   1.409       .  A
C3407     Br3422   1.930       .  S
C3408      C3411   1.484       .  S
C3408      C3409   1.411       .  A
C3409      C3410   1.409       .  A
C3409     Br3417   1.928       .  S
C3410     Br3421   1.929       .  S
C3411      C3412   1.410       .  A
C3411      C3416   1.408       .  A
C3412      C3413   1.409       .  A
C3412     Br3423   1.928       .  S
C3413      C3414   1.409       .  A
C3413     Br3419   1.927       .  S
C3414      C3415   1.411       .  A
C3415      C3416   1.406       .  A
C3415     Br3424   1.931       .  S
C3416     Br3420   1.930       .  S
C3425      C3426   1.412       .  A
C3425      C3430   1.409       .  A
C3426      C3427   1.409       .  A
C3426     Br3438   1.930       .  S
C3427      C3428   1.410       .  A
C3427     Br3442   1.930       .  S
C3428      C3431   1.484       .  S
C3428      C3429   1.408       .  A
C3429      C3430   1.405       .  A
C3429     Br3437   1.930       .  S
C3430     Br3441   1.929       .  S
C3431      C3432   1.411       .  A
C3431      C3436   1.404       .  A
C3432      C3433   1.412       .  A
C3432     Br3443   1.928       .  S
C3433      C3434   1.413       .  A
C3433     Br3439   1.929       .  S
C3434      C3435   1.419       .  A
C3435      C3436   1.403       .  A
C3435     Br3444   1.933       .  S
C3436     Br3440   1.935       .  S
C3445      C3446   1.424       .  A
C3445      C3450   1.419       .  A
C3446      C3447   1.406       .  A
C3446     Br3458   1.931       .  S
C3447      C3448   1.403       .  A
C3447     Br3462   1.934       .  S
C3448      C3451   1.491       .  S
C3448      C3449   1.410       .  A
C3449      C3450   1.415       .  A
C3449     Br3457   1.929       .  S
C3450     Br3461   1.931       .  S
C3451      C3452   1.409       .  A
C3451      C3456   1.413       .  A
C3452      C3453   1.408       .  A
C3452     Br3463   1.931       .  S
C3453      C3454   1.412       .  A
C3453     Br3459   1.928       .  S
C3454      C3455   1.407       .  A
C3455      C3456   1.411       .  A
C3455     Br3464   1.925       .  S
C3456     Br3460   1.928       .  S
C3465      C3466   1.422       .  A
C3465      C3470   1.422       .  A
C3466      C3467   1.413       .  A
C3466     Br3478   1.928       .  S
C3467      C3468   1.407       .  A
C3467     Br3482   1.932       .  S
C3468      C3471   1.489       .  S
C3468      C3469   1.405       .  A
C3469      C3470   1.408       .  A
C3469     Br3477   1.933       .  S
C3470     Br3481   1.935       .  S
C3471      C3472   1.408       .  A
C3471      C3476   1.411       .  A
C3472      C3473   1.406       .  A
C3472     Br3483   1.931       .  S
C3473      C3474   1.414       .  A
C3473     Br3479   1.934       .  S
C3474      C3475   1.410       .  A
C3475      C3476   1.411       .  A
C3475     Br3484   1.929       .  S
C3476     Br3480   1.928       .  S
C3485      C3486   1.408       .  A
C3485      C3490   1.407       .  A
C3486      C3487   1.405       .  A
C3486     Br3498   1.931       .  S
C3487      C3488   1.410       .  A
C3487     Br3502   1.929       .  S
C3488      C3491   1.481   1_455  S
C3488      C3489   1.410       .  A
C3489      C3490   1.404       .  A
C3489     Br3497   1.929       .  S
C3490     Br3501   1.932       .  S
C3491      C3492   1.404       .  A
C3491      C3496   1.410       .  A
C3492      C3493   1.403       .  A
C3492     Br3503   1.934   1_655  S
C3493      C3494   1.419       .  A
C3493     Br3499   1.935       .  S
C3494      C3495   1.414       .  A
C3495      C3496   1.411       .  A
C3495     Br3504   1.929       .  S
C3496     Br3500   1.930       .  S
C3505      C3506   1.411       .  A
C3505      C3510   1.413       .  A
C3506      C3507   1.409       .  A
C3506     Br3518   1.927       .  S
C3507      C3508   1.410       .  A
C3507     Br3522   1.930       .  S
C3508      C3511   1.489       .  S
C3508      C3509   1.409       .  A
C3509      C3510   1.409       .  A
C3509     Br3517   1.929       .  S
C3510     Br3521   1.931       .  S
C3511      C3512   1.410       .  A
C3511      C3516   1.408       .  A
C3512      C3513   1.410       .  A
C3512     Br3523   1.930       .  S
C3513      C3514   1.412       .  A
C3513     Br3519   1.927       .  S
C3514      C3515   1.415       .  A
C3515      C3516   1.409       .  A
C3515     Br3524   1.932       .  S
C3516     Br3520   1.930       .  S
C3525      C3526   1.413       .  A
C3525      C3530   1.415       .  A
C3526      C3527   1.409       .  A
C3526     Br3538   1.932       .  S
C3527      C3528   1.410       .  A
C3527     Br3542   1.930       .  S
C3528      C3531   1.488       .  S
C3528      C3529   1.408       .  A
C3529      C3530   1.409       .  A
C3529     Br3537   1.931       .  S
C3530     Br3541   1.932       .  S
C3531      C3532   1.407       .  A
C3531      C3536   1.411       .  A
C3532      C3533   1.406       .  A
C3532     Br3543   1.932       .  S
C3533      C3534   1.416       .  A
C3533     Br3539   1.934       .  S
C3534      C3535   1.412       .  A
C3535      C3536   1.411       .  A
C3535     Br3544   1.929       .  S
C3536     Br3540   1.929       .  S
C3545      C3546   1.416       .  A
C3545      C3550   1.412       .  A
C3546      C3547   1.403       .  A
C3546     Br3558   1.935       .  S
C3547      C3548   1.406       .  A
C3547     Br3562   1.933       .  S
C3548      C3551   1.486       .  S
C3548      C3549   1.411       .  A
C3549      C3550   1.412       .  A
C3549     Br3557   1.928       .  S
C3550     Br3561   1.930   1_455  S
C3551      C3552   1.406       .  A
C3551      C3556   1.409       .  A
C3552      C3553   1.407       .  A
C3552     Br3563   1.932       .  S
C3553      C3554   1.418       .  A
C3553     Br3559   1.933       .  S
C3554      C3555   1.415       .  A
C3555      C3556   1.410       .  A
C3555     Br3564   1.928       .  S
C3556     Br3560   1.931       .  S
C3565      C3566   1.410       .  A
C3565      C3570   1.414       .  A
C3566      C3567   1.409       .  A
C3566     Br3578   1.930       .  S
C3567      C3568   1.410       .  A
C3567     Br3582   1.929       .  S
C3568      C3571   1.493       .  S
C3568      C3569   1.410       .  A
C3569      C3570   1.412       .  A
C3569     Br3577   1.929       .  S
C3570     Br3581   1.931       .  S
C3571      C3572   1.413       .  A
C3571      C3576   1.408       .  A
C3572      C3573   1.413       .  A
C3572     Br3583   1.928       .  S
C3573      C3574   1.410       .  A
C3573     Br3579   1.928       .  S
C3574      C3575   1.413       .  A
C3575      C3576   1.409       .  A
C3575     Br3584   1.931       .  S
C3576     Br3580   1.930       .  S
C3585      C3586   1.415       .  A
C3585      C3590   1.410       .  A
C3586      C3587   1.403       .  A
C3586     Br3598   1.931       .  S
C3587      C3588   1.405       .  A
C3587     Br3602   1.933       .  S
C3588      C3591   1.482       .  S
C3588      C3589   1.411       .  A
C3589      C3590   1.411       .  A
C3589     Br3597   1.928       .  S
C3590     Br3601   1.928       .  S
C3591      C3592   1.409   1_565  A
C3591      C3596   1.405       .  A
C3592      C3593   1.410       .  A
C3592     Br3603   1.931       .  S
C3593      C3594   1.416   1_545  A
C3593     Br3599   1.932       .  S
C3594      C3595   1.415       .  A
C3595      C3596   1.405       .  A
C3595     Br3604   1.931       .  S
C3596     Br3600   1.931       .  S
C3605      C3606   1.411       .  A
C3605      C3610   1.416       .  A
C3606      C3607   1.408       .  A
C3606     Br3618   1.931       .  S
C3607      C3608   1.410       .  A
C3607     Br3622   1.931       .  S
C3608      C3611   1.487       .  S
C3608      C3609   1.408       .  A
C3609      C3610   1.409       .  A
C3609     Br3617   1.931       .  S
C3610     Br3621   1.931       .  S
C3611      C3612   1.406       .  A
C3611      C3616   1.408       .  A
C3612      C3613   1.408       .  A
C3612     Br3623   1.932       .  S
C3613      C3614   1.416       .  A
C3613     Br3619   1.922       .  S
C3614      C3615   1.414       .  A
C3615      C3616   1.409       .  A
C3615     Br3624   1.927       .  S
C3616     Br3620   1.929       .  S
C3625      C3626   1.408   1_565  A
C3625      C3630   1.409       .  A
C3626      C3627   1.407       .  A
C3626     Br3638   1.928       .  S
C3627      C3628   1.411       .  A
C3627     Br3642   1.930       .  S
C3628      C3631   1.490       .  S
C3628      C3629   1.413   1_545  A
C3629      C3630   1.409       .  A
C3629     Br3637   1.931       .  S
C3630     Br3641   1.929       .  S
C3631      C3632   1.408       .  A
C3631      C3636   1.414       .  A
C3632      C3633   1.405       .  A
C3632     Br3643   1.932       .  S
C3633      C3634   1.412       .  A
C3633     Br3639   1.929       .  S
C3634      C3635   1.408       .  A
C3635      C3636   1.412       .  A
C3635     Br3644   1.927   1_545  S
C3636     Br3640   1.930       .  S
C3645      C3646   1.413   1_565  A
C3645      C3650   1.416       .  A
C3646      C3647   1.410       .  A
C3646     Br3658   1.931       .  S
C3647      C3648   1.411   1_545  A
C3647     Br3662   1.930       .  S
C3648      C3651   1.488       .  S
C3648      C3649   1.408       .  A
C3649      C3650   1.406       .  A
C3649     Br3657   1.933       .  S
C3650     Br3661   1.934       .  S
C3651      C3652   1.412   1_565  A
C3651      C3656   1.408       .  A
C3652      C3653   1.411       .  A
C3652     Br3663   1.930       .  S
C3653      C3654   1.411   1_545  A
C3653     Br3659   1.929       .  S
C3654      C3655   1.416       .  A
C3655      C3656   1.405       .  A
C3655     Br3664   1.934       .  S
C3656     Br3660   1.933       .  S
C3665      C3666   1.417       .  A
C3665      C3670   1.416   1_545  A
C3666      C3667   1.407       .  A
C3666     Br3678   1.933       .  S
C3667      C3668   1.406       .  A
C3667     Br3682   1.931       .  S
C3668      C3671   1.486       .  S
C3668      C3669   1.409   1_545  A
C3669      C3670   1.409       .  A
C3669     Br3677   1.930       .  S
C3670     Br3681   1.932       .  S
C3671      C3672   1.410   1_545  A
C3671      C3676   1.407       .  A
C3672      C3673   1.410       .  A
C3672     Br3683   1.930       .  S
C3673      C3674   1.411   1_565  A
C3673     Br3679   1.928       .  S
C3674      C3675   1.415       .  A
C3675      C3676   1.406       .  A
C3675     Br3684   1.933       .  S
C3676     Br3680   1.931       .  S
C3685      C3686   1.413       .  A
C3685      C3690   1.416       .  A
C3686      C3687   1.416       .  A
C3686     Br3698   1.928       .  S
C3687      C3688   1.414       .  A
C3687     Br3702   1.929       .  S
C3688      C3691   1.497       .  S
C3688      C3689   1.409       .  A
C3689      C3690   1.408       .  A
C3689     Br3697   1.932       .  S
C3690     Br3701   1.934       .  S
C3691      C3692   1.413       .  A
C3691      C3696   1.407       .  A
C3692      C3693   1.417       .  A
C3692     Br3703   1.928       .  S
C3693      C3694   1.414       .  A
C3693     Br3699   1.927       .  S
C3694      C3695   1.421       .  A
C3695      C3696   1.408       .  A
C3695     Br3704   1.935       .  S
C3696     Br3700   1.934       .  S
C3705      C3706   1.418       .  A
C3705      C3710   1.419       .  A
C3706      C3707   1.414       .  A
C3706     Br3718   1.930       .  S
C3707      C3708   1.410       .  A
C3707     Br3722   1.929       .  S
C3708      C3711   1.491       .  S
C3708      C3709   1.407       .  A
C3709      C3710   1.407       .  A
C3709     Br3717   1.933       .  S
C3710     Br3721   1.935       .  S
C3711      C3712   1.411       .  A
C3711      C3716   1.408       .  A
C3712      C3713   1.413       .  A
C3712     Br3723   1.928       .  S
C3713      C3714   1.415       .  A
C3713     Br3719   1.928       .  S
C3714      C3715   1.414       .  A
C3715      C3716   1.405       .  A
C3715     Br3724   1.933       .  S
C3716     Br3720   1.932       .  S
C3725      C3726   1.412   1_565  A
C3725      C3730   1.412       .  A
C3726      C3727   1.407       .  A
C3726     Br3738   1.931       .  S
C3727      C3728   1.408   1_545  A
C3727     Br3742   1.930       .  S
C3728      C3731   1.485       .  S
C3728      C3729   1.410       .  A
C3729      C3730   1.408       .  A
C3729     Br3737   1.930       .  S
C3730     Br3741   1.931       .  S
C3731      C3732   1.409       .  A
C3731      C3736   1.411       .  A
C3732      C3733   1.405       .  A
C3732     Br3743   1.929   1_565  S
C3733      C3734   1.408       .  A
C3733     Br3739   1.931   1_565  S
C3734      C3735   1.408       .  A
C3735      C3736   1.409       .  A
C3735     Br3744   1.925       .  S
C3736     Br3740   1.929       .  S
C3745      C3746   1.417   1_565  A
C3745      C3750   1.414       .  A
C3746      C3747   1.407       .  A
C3746     Br3758   1.934       .  S
C3747      C3748   1.406   1_545  A
C3747     Br3762   1.931       .  S
C3748      C3751   1.485       .  S
C3748      C3749   1.408       .  A
C3749      C3750   1.409       .  A
C3749     Br3757   1.931       .  S
C3750     Br3761   1.920       .  S
C3751      C3752   1.410       .  A
C3751      C3756   1.404   1_565  A
C3752      C3753   1.413       .  A
C3752     Br3763   1.929       .  S
C3753      C3754   1.413       .  A
C3753     Br3759   1.928       .  S
C3754      C3755   1.419   1_565  A
C3755      C3756   1.404       .  A
C3755     Br3764   1.936       .  S
C3756     Br3760   1.933       .  S
C3765      C3766   1.410       .  A
C3765      C3770   1.413   1_565  A
C3766      C3767   1.408       .  A
C3766     Br3778   1.930       .  S
C3767      C3768   1.410   1_565  A
C3767     Br3782   1.929       .  S
C3768      C3771   1.486       .  S
C3768      C3769   1.409       .  A
C3769      C3770   1.407       .  A
C3769     Br3777   1.930       .  S
C3770     Br3781   1.931       .  S
C3771      C3772   1.406       .  A
C3771      C3776   1.411   1_545  A
C3772      C3773   1.406       .  A
C3772     Br3783   1.931       .  S
C3773      C3774   1.417       .  A
C3773     Br3779   1.934       .  S
C3774      C3775   1.411   1_545  A
C3775      C3776   1.409       .  A
C3775     Br3784   1.930       .  S
C3776     Br3780   1.930       .  S
C3785      C3786   1.409       .  A
C3785      C3790   1.414       .  A
C3786      C3787   1.407       .  A
C3786     Br3798   1.930       .  S
C3787      C3788   1.410       .  A
C3787     Br3802   1.929       .  S
C3788      C3791   1.483       .  S
C3788      C3789   1.407       .  A
C3789      C3790   1.406       .  A
C3789     Br3797   1.932       .  S
C3790     Br3801   1.930       .  S
C3791      C3792   1.406       .  A
C3791      C3796   1.408       .  A
C3792      C3793   1.407       .  A
C3792     Br3803   1.932       .  S
C3793      C3794   1.416       .  A
C3793     Br3799   1.926       .  S
C3794      C3795   1.417       .  A
C3795      C3796   1.408       .  A
C3795     Br3804   1.932   1_655  S
C3796     Br3800   1.931       .  S
C3805      C3806   1.410       .  A
C3805      C3810   1.411   1_565  A
C3806      C3807   1.410       .  A
C3806     Br3818   1.930       .  S
C3807      C3808   1.412       .  A
C3807     Br3822   1.929       .  S
C3808      C3811   1.492       .  S
C3808      C3809   1.411   1_565  A
C3809      C3810   1.409       .  A
C3809     Br3817   1.930       .  S
C3810     Br3821   1.931       .  S
C3811      C3812   1.412       .  A
C3811      C3816   1.409       .  A
C3812      C3813   1.412       .  A
C3812     Br3823   1.930       .  S
C3813      C3814   1.411       .  A
C3813     Br3819   1.926       .  S
C3814      C3815   1.413       .  A
C3815      C3816   1.409       .  A
C3815     Br3824   1.933   1_455  S
C3816     Br3820   1.930   1_455  S
C3825      C3826   1.411       .  A
C3825      C3830   1.413       .  A
C3826      C3827   1.408       .  A
C3826     Br3838   1.931       .  S
C3827      C3828   1.409       .  A
C3827     Br3842   1.929       .  S
C3828      C3831   1.488       .  S
C3828      C3829   1.410       .  A
C3829      C3830   1.410       .  A
C3829     Br3837   1.929       .  S
C3830     Br3841   1.931       .  S
C3831      C3832   1.409       .  A
C3831      C3836   1.410       .  A
C3832      C3833   1.407       .  A
C3832     Br3843   1.931       .  S
C3833      C3834   1.412       .  A
C3833     Br3839   1.931       .  S
C3834      C3835   1.412       .  A
C3835      C3836   1.411       .  A
C3835     Br3844   1.930       .  S
C3836     Br3840   1.928       .  S
C3845      C3846   1.414       .  A
C3845      C3850   1.413       .  A
C3846      C3847   1.407       .  A
C3846     Br3858   1.932       .  S
C3847      C3848   1.407       .  A
C3847     Br3862   1.929       .  S
C3848      C3851   1.481       .  S
C3848      C3849   1.408       .  A
C3849      C3850   1.406       .  A
C3849     Br3857   1.931   1_455  S
C3850     Br3861   1.932   1_455  S
C3851      C3852   1.407       .  A
C3851      C3856   1.409       .  A
C3852      C3853   1.408       .  A
C3852     Br3863   1.928   1_455  S
C3853      C3854   1.413       .  A
C3853     Br3859   1.931       .  S
C3854      C3855   1.409       .  A
C3855      C3856   1.405       .  A
C3855     Br3864   1.929       .  S
C3856     Br3860   1.931       .  S
C3865      C3866   1.418       .  A
C3865      C3870   1.418       .  A
C3866      C3867   1.410       .  A
C3866     Br3878   1.932       .  S
C3867      C3868   1.408       .  A
C3867     Br3882   1.931       .  S
C3868      C3871   1.484       .  S
C3868      C3869   1.406       .  A
C3869      C3870   1.405       .  A
C3869     Br3877   1.932       .  S
C3870     Br3881   1.935       .  S
C3871      C3872   1.406       .  A
C3871      C3876   1.411       .  A
C3872      C3873   1.403       .  A
C3872     Br3883   1.933       .  S
C3873      C3874   1.416       .  A
C3873     Br3879   1.934       .  S
C3874      C3875   1.410       .  A
C3875      C3876   1.411       .  A
C3875     Br3884   1.929       .  S
C3876     Br3880   1.929       .  S
C3885      C3886   1.413       .  A
C3885      C3890   1.418       .  A
C3886      C3887   1.411       .  A
C3886     Br3898   1.929       .  S
C3887      C3888   1.410       .  A
C3887     Br3902   1.929       .  S
C3888      C3891   1.488       .  S
C3888      C3889   1.406       .  A
C3889      C3890   1.406       .  A
C3889     Br3897   1.932       .  S
C3890     Br3901   1.935       .  S
C3891      C3892   1.409       .  A
C3891      C3896   1.410       .  A
C3892      C3893   1.408       .  A
C3892     Br3903   1.930       .  S
C3893      C3894   1.413       .  A
C3893     Br3899   1.930       .  S
C3894      C3895   1.413       .  A
C3895      C3896   1.409       .  A
C3895     Br3904   1.931       .  S
C3896     Br3900   1.930       .  S
C3905      C3906   1.415       .  A
C3905      C3910   1.414       .  A
C3906      C3907   1.412       .  A
C3906     Br3918   1.923       .  S
C3907      C3908   1.410       .  A
C3907     Br3922   1.930       .  S
C3908      C3911   1.486       .  S
C3908      C3909   1.406       .  A
C3909      C3910   1.405       .  A
C3909     Br3917   1.931       .  S
C3910     Br3921   1.927       .  S
C3911      C3912   1.413       .  A
C3911      C3916   1.408       .  A
C3912      C3913   1.409       .  A
C3912     Br3923   1.928       .  S
C3913      C3914   1.406       .  A
C3913     Br3919   1.928       .  S
C3914      C3915   1.412       .  A
C3915      C3916   1.406       .  A
C3915     Br3924   1.931       .  S
C3916     Br3920   1.931       .  S
C3925      C3926   1.415       .  A
C3925      C3930   1.414       .  A
C3926      C3927   1.412       .  A
C3926     Br3938   1.931       .  S
C3927      C3928   1.410       .  A
C3927     Br3942   1.928       .  S
C3928      C3931   1.488       .  S
C3928      C3929   1.408       .  A
C3929      C3930   1.406       .  A
C3929     Br3937   1.931       .  S
C3930     Br3941   1.933       .  S
C3931      C3932   1.407       .  A
C3931      C3936   1.409       .  A
C3932      C3933   1.409       .  A
C3932     Br3943   1.930       .  S
C3933      C3934   1.414       .  A
C3933     Br3939   1.921       .  S
C3934      C3935   1.413       .  A
C3935      C3936   1.410       .  A
C3935     Br3944   1.926       .  S
C3936     Br3940   1.930       .  S
C3945      C3946   1.412       .  A
C3945      C3950   1.410       .  A
C3946      C3947   1.411       .  A
C3946     Br3958   1.929       .  S
C3947      C3948   1.410       .  A
C3947     Br3962   1.928       .  S
C3948      C3951   1.488       .  S
C3948      C3949   1.409       .  A
C3949      C3950   1.407       .  A
C3949     Br3957   1.930       .  S
C3950     Br3961   1.930       .  S
C3951      C3952   1.406       .  A
C3951      C3956   1.410       .  A
C3952      C3953   1.408       .  A
C3952     Br3963   1.930       .  S
C3953      C3954   1.416       .  A
C3953     Br3959   1.933       .  S
C3954      C3955   1.414       .  A
C3955      C3956   1.411       .  A
C3955     Br3964   1.929       .  S
C3956     Br3960   1.930       .  S
C3965      C3966   1.414   1_455  A
C3965      C3970   1.422       .  A
C3966      C3967   1.410       .  A
C3966     Br3978   1.930       .  S
C3967      C3968   1.409   1_655  A
C3967     Br3982   1.929       .  S
C3968      C3971   1.483       .  S
C3968      C3969   1.403       .  A
C3969      C3970   1.405       .  A
C3969     Br3977   1.934       .  S
C3970     Br3981   1.933       .  S
C3971      C3972   1.407       .  A
C3971      C3976   1.408       .  A
C3972      C3973   1.407       .  A
C3972     Br3983   1.930       .  S
C3973      C3974   1.413       .  A
C3973     Br3979   1.931       .  S
C3974      C3975   1.413       .  A
C3975      C3976   1.408       .  A
C3975     Br3984   1.932       .  S
C3976     Br3980   1.930       .  S
C3985      C3986   1.413       .  A
C3985      C3990   1.416       .  A
C3986      C3987   1.413       .  A
C3986     Br3998   1.922       .  S
C3987      C3988   1.410       .  A
C3987     Br4002   1.929       .  S
C3988      C3991   1.490       .  S
C3988      C3989   1.408       .  A
C3989      C3990   1.406       .  A
C3989     Br3997   1.933       .  S
C3990     Br4001   1.933   1_455  S
C3991      C3992   1.408       .  A
C3991      C3996   1.411       .  A
C3992      C3993   1.409       .  A
C3992     Br4003   1.931   1_455  S
C3993      C3994   1.413       .  A
C3993     Br3999   1.925   1_455  S
C3994      C3995   1.412       .  A
C3995      C3996   1.410       .  A
C3995     Br4004   1.929       .  S
C3996     Br4000   1.930       .  S
C4005      C4006   1.422       .  A
C4005      C4010   1.419       .  A
C4006      C4007   1.407       .  A
C4006     Br4018   1.935       .  S
C4007      C4008   1.404       .  A
C4007     Br4022   1.933       .  S
C4008      C4011   1.486       .  S
C4008      C4009   1.408       .  A
C4009      C4010   1.411       .  A
C4009     Br4017   1.931       .  S
C4010     Br4021   1.930       .  S
C4011      C4012   1.406       .  A
C4011      C4016   1.410       .  A
C4012      C4013   1.405       .  A
C4012     Br4023   1.933       .  S
C4013      C4014   1.417       .  A
C4013     Br4019   1.935       .  S
C4014      C4015   1.412       .  A
C4015      C4016   1.412       .  A
C4015     Br4024   1.929       .  S
C4016     Br4020   1.928       .  S
C4025      C4026   1.413       .  A
C4025      C4030   1.418       .  A
C4026      C4027   1.411       .  A
C4026     Br4038   1.924       .  S
C4027      C4028   1.411       .  A
C4027     Br4042   1.930       .  S
C4028      C4031   1.485       .  S
C4028      C4029   1.405       .  A
C4029      C4030   1.404       .  A
C4029     Br4037   1.933       .  S
C4030     Br4041   1.935       .  S
C4031      C4032   1.410       .  A
C4031      C4036   1.409       .  A
C4032      C4033   1.409       .  A
C4032     Br4043   1.930       .  S
C4033      C4034   1.412       .  A
C4033     Br4039   1.931       .  S
C4034      C4035   1.410       .  A
C4035      C4036   1.405       .  A
C4035     Br4044   1.927       .  S
C4036     Br4040   1.932       .  S
C4045      C4046   1.410       .  A
C4045      C4050   1.411       .  A
C4046      C4047   1.409       .  A
C4046     Br4058   1.930       .  S
C4047      C4048   1.410       .  A
C4047     Br4062   1.928       .  S
C4048      C4051   1.489       .  S
C4048      C4049   1.410       .  A
C4049      C4050   1.409       .  A
C4049     Br4057   1.929       .  S
C4050     Br4061   1.930       .  S
C4051      C4052   1.412       .  A
C4051      C4056   1.408       .  A
C4052      C4053   1.410       .  A
C4052     Br4063   1.929       .  S
C4053      C4054   1.408       .  A
C4053     Br4059   1.928       .  S
C4054      C4055   1.413       .  A
C4055      C4056   1.409       .  A
C4055     Br4064   1.930   1_455  S
C4056     Br4060   1.929   1_455  S
C4065      C4066   1.413       .  A
C4065      C4070   1.409       .  A
C4066      C4067   1.404       .  A
C4066     Br4078   1.930       .  S
C4067      C4068   1.407       .  A
C4067     Br4082   1.933       .  S
C4068      C4071   1.489       .  S
C4068      C4069   1.413       .  A
C4069      C4070   1.413       .  A
C4069     Br4077   1.928       .  S
C4070     Br4081   1.927       .  S
C4071      C4072   1.410       .  A
C4071      C4076   1.408       .  A
C4072      C4073   1.412       .  A
C4072     Br4083   1.930       .  S
C4073      C4074   1.415       .  A
C4073     Br4079   1.931       .  S
C4074      C4075   1.415       .  A
C4075      C4076   1.406       .  A
C4075     Br4084   1.933       .  S
C4076     Br4080   1.932       .  S
C4085      C4086   1.415       .  A
C4085      C4090   1.411       .  A
C4086      C4087   1.411       .  A
C4086     Br4098   1.931       .  S
C4087      C4088   1.408       .  A
C4087     Br4102   1.928       .  S
C4088      C4091   1.486       .  S
C4088      C4089   1.409       .  A
C4089      C4090   1.406       .  A
C4089     Br4097   1.932       .  S
C4090     Br4101   1.931       .  S
C4091      C4092   1.409       .  A
C4091      C4096   1.410       .  A
C4092      C4093   1.408       .  A
C4092     Br4103   1.928       .  S
C4093      C4094   1.411       .  A
C4093     Br4099   1.930       .  S
C4094      C4095   1.409       .  A
C4095      C4096   1.407       .  A
C4095     Br4104   1.929       .  S
C4096     Br4100   1.929       .  S
C4105      C4106   1.414       .  A
C4105      C4110   1.409       .  A
C4106      C4107   1.410       .  A
C4106     Br4118   1.931       .  S
C4107      C4108   1.409       .  A
C4107     Br4122   1.930       .  S
C4108      C4111   1.491       .  S
C4108      C4109   1.411       .  A
C4109      C4110   1.409       .  A
C4109     Br4117   1.928   1_655  S
C4110     Br4121   1.929   1_655  S
C4111      C4112   1.407       .  A
C4111      C4116   1.407       .  A
C4112      C4113   1.409       .  A
C4112     Br4123   1.933       .  S
C4113      C4114   1.418       .  A
C4113     Br4119   1.927       .  S
C4114      C4115   1.422       .  A
C4115      C4116   1.414       .  A
C4115     Br4124   1.929       .  S
C4116     Br4120   1.930       .  S
C4125      C4126   1.416       .  A
C4125      C4130   1.413       .  A
C4126      C4127   1.407       .  A
C4126     Br4138   1.928       .  S
C4127      C4128   1.406       .  A
C4127     Br4142   1.931       .  S
C4128      C4131   1.490       .  S
C4128      C4129   1.410       .  A
C4129      C4130   1.412       .  A
C4129     Br4137   1.929       .  S
C4130     Br4141   1.930       .  S
C4131      C4132   1.404       .  A
C4131      C4136   1.412       .  A
C4132      C4133   1.407       .  A
C4132     Br4143   1.933       .  S
C4133      C4134   1.419       .  A
C4133     Br4139   1.931       .  S
C4134      C4135   1.414       .  A
C4135      C4136   1.414       .  A
C4135     Br4144   1.929       .  S
C4136     Br4140   1.929       .  S
C4145      C4146   1.407       .  A
C4145      C4150   1.411       .  A
C4146      C4147   1.404       .  A
C4146     Br4158   1.926       .  S
C4147      C4148   1.409       .  A
C4147     Br4162   1.931       .  S
C4148      C4151   1.485       .  S
C4148      C4149   1.411       .  A
C4149      C4150   1.410       .  A
C4149     Br4157   1.928       .  S
C4150     Br4161   1.930       .  S
C4151      C4152   1.410       .  A
C4151      C4156   1.410       .  A
C4152      C4153   1.407       .  A
C4152     Br4163   1.931       .  S
C4153      C4154   1.410       .  A
C4153     Br4159   1.926       .  S
C4154      C4155   1.409       .  A
C4155      C4156   1.408       .  A
C4155     Br4164   1.930       .  S
C4156     Br4160   1.929       .  S
C4165      C4166   1.415       .  A
C4165      C4170   1.411       .  A
C4166      C4167   1.405       .  A
C4166     Br4178   1.934       .  S
C4167      C4168   1.406       .  A
C4167     Br4182   1.931       .  S
C4168      C4171   1.483       .  S
C4168      C4169   1.410       .  A
C4169      C4170   1.409       .  A
C4169     Br4177   1.929       .  S
C4170     Br4181   1.930       .  S
C4171      C4172   1.407       .  A
C4171      C4176   1.406       .  A
C4172      C4173   1.408       .  A
C4172     Br4183   1.931       .  S
C4173      C4174   1.417       .  A
C4173     Br4179   1.933       .  S
C4174      C4175   1.417       .  A
C4175      C4176   1.406       .  A
C4175     Br4184   1.933       .  S
C4176     Br4180   1.931       .  S
C4185      C4186   1.416       .  A
C4185      C4190   1.414       .  A
C4186      C4187   1.407       .  A
C4186     Br4198   1.933       .  S
C4187      C4188   1.407       .  A
C4187     Br4202   1.931       .  S
C4188      C4191   1.487       .  S
C4188      C4189   1.409       .  A
C4189      C4190   1.411       .  A
C4189     Br4197   1.930       .  S
C4190     Br4201   1.923       .  S
C4191      C4192   1.411       .  A
C4191      C4196   1.406       .  A
C4192      C4193   1.412       .  A
C4192     Br4203   1.928       .  S
C4193      C4194   1.412       .  A
C4193     Br4199   1.928       .  S
C4194      C4195   1.417       .  A
C4195      C4196   1.405       .  A
C4195     Br4204   1.934       .  S
C4196     Br4200   1.932       .  S
C4205      C4206   1.427       .  A
C4205      C4210   1.417       .  A
C4206      C4207   1.409       .  A
C4206     Br4218   1.938       .  S
C4207      C4208   1.405       .  A
C4207     Br4222   1.936       .  S
C4208      C4211   1.492       .  S
C4208      C4209   1.408       .  A
C4209      C4210   1.415       .  A
C4209     Br4217   1.928       .  S
C4210     Br4221   1.926       .  S
C4211      C4212   1.407       .  A
C4211      C4216   1.412       .  A
C4212      C4213   1.407       .  A
C4212     Br4223   1.932       .  S
C4213      C4214   1.418       .  A
C4213     Br4219   1.933       .  S
C4214      C4215   1.410       .  A
C4215      C4216   1.413       .  A
C4215     Br4224   1.927       .  S
C4216     Br4220   1.927       .  S
C4225      C4226   1.412       .  A
C4225      C4230   1.414       .  A
C4226      C4227   1.404       .  A
C4226     Br4238   1.933       .  S
C4227      C4228   1.408       .  A
C4227     Br4242   1.932       .  S
C4228      C4231   1.478       .  S
C4228      C4229   1.407       .  A
C4229      C4230   1.407       .  A
C4229     Br4237   1.930       .  S
C4230     Br4241   1.932       .  S
C4231      C4232   1.408       .  A
C4231      C4236   1.408       .  A
C4232      C4233   1.404       .  A
C4232     Br4243   1.931       .  S
C4233      C4234   1.410       .  A
C4233     Br4239   1.932       .  S
C4234      C4235   1.411       .  A
C4235      C4236   1.406       .  A
C4235     Br4244   1.932       .  S
C4236     Br4240   1.929       .  S
C4245      C4246   1.427       .  A
C4245      C4250   1.427       .  A
C4246      C4247   1.409       .  A
C4246     Br4258   1.938       .  S
C4247      C4248   1.405       .  A
C4247     Br4262   1.935       .  S
C4248      C4251   1.493       .  S
C4248      C4249   1.406       .  A
C4249      C4250   1.415       .  A
C4249     Br4257   1.931       .  S
C4250     Br4261   1.933       .  S
C4251      C4252   1.407       .  A
C4251      C4256   1.413       .  A
C4252      C4253   1.407       .  A
C4252     Br4263   1.932       .  S
C4253      C4254   1.415       .  A
C4253     Br4259   1.928       .  S
C4254      C4255   1.409       .  A
C4255      C4256   1.414       .  A
C4255     Br4264   1.928       .  S
C4256     Br4260   1.927       .  S
C4265      C4266   1.415       .  A
C4265      C4270   1.411       .  A
C4266      C4267   1.409       .  A
C4266     Br4278   1.933       .  S
C4267      C4268   1.409       .  A
C4267     Br4282   1.931       .  S
C4268      C4271   1.490       .  S
C4268      C4269   1.411       .  A
C4269      C4270   1.410       .  A
C4269     Br4277   1.930       .  S
C4270     Br4281   1.929       .  S
C4271      C4272   1.409       .  A
C4271      C4276   1.409       .  A
C4272      C4273   1.411       .  A
C4272     Br4283   1.930       .  S
C4273      C4274   1.416       .  A
C4273     Br4279   1.931       .  S
C4274      C4275   1.413       .  A
C4275      C4276   1.409       .  A
C4275     Br4284   1.927       .  S
C4276     Br4280   1.931       .  S
C4285      C4286   1.408       .  A
C4285      C4290   1.409       .  A
C4286      C4287   1.405       .  A
C4286     Br4298   1.922       .  S
C4287      C4288   1.409       .  A
C4287     Br4302   1.931       .  S
C4288      C4291   1.482       .  S
C4288      C4289   1.409       .  A
C4289      C4290   1.406       .  A
C4289     Br4297   1.928       .  S
C4290     Br4301   1.930       .  S
C4291      C4292   1.409       .  A
C4291      C4296   1.408       .  A
C4292      C4293   1.410       .  A
C4292     Br4303   1.928       .  S
C4293      C4294   1.414       .  A
C4293     Br4299   1.930       .  S
C4294      C4295   1.408       .  A
C4295      C4296   1.402       .  A
C4295     Br4304   1.925       .  S
C4296     Br4300   1.933       .  S
C4305      C4306   1.416       .  A
C4305      C4310   1.412       .  A
C4306      C4307   1.405       .  A
C4306     Br4318   1.934       .  S
C4307      C4308   1.407       .  A
C4307     Br4322   1.932       .  S
C4308      C4311   1.487       .  S
C4308      C4309   1.411       .  A
C4309      C4310   1.411       .  A
C4309     Br4317   1.928       .  S
C4310     Br4321   1.930       .  S
C4311      C4312   1.409       .  A
C4311      C4316   1.406       .  A
C4312      C4313   1.411       .  A
C4312     Br4323   1.929       .  S
C4313      C4314   1.414       .  A
C4313     Br4319   1.929       .  S
C4314      C4315   1.419       .  A
C4315      C4316   1.406       .  A
C4315     Br4324   1.935       .  S
C4316     Br4320   1.933       .  S
C4325      C4326   1.414       .  A
C4325      C4330   1.413       .  A
C4326      C4327   1.405       .  A
C4326     Br4338   1.933       .  S
C4327      C4328   1.407       .  A
C4327     Br4342   1.930       .  S
C4328      C4331   1.485   1_455  S
C4328      C4329   1.410       .  A
C4329      C4330   1.409       .  A
C4329     Br4337   1.929       .  S
C4330     Br4341   1.932       .  S
C4331      C4332   1.410       .  A
C4331      C4336   1.407       .  A
C4332      C4333   1.409       .  A
C4332     Br4343   1.929   1_655  S
C4333      C4334   1.410       .  A
C4333     Br4339   1.928       .  S
C4334      C4335   1.416       .  A
C4335      C4336   1.407       .  A
C4335     Br4344   1.933       .  S
C4336     Br4340   1.932   1_655  S
C4345      C4346   1.417       .  A
C4345      C4350   1.413       .  A
C4346      C4347   1.407       .  A
C4346     Br4358   1.935       .  S
C4347      C4348   1.409       .  A
C4347     Br4362   1.933       .  S
C4348      C4351   1.492       .  S
C4348      C4349   1.412       .  A
C4349      C4350   1.413       .  A
C4349     Br4357   1.929       .  S
C4350     Br4361   1.928       .  S
C4351      C4352   1.408       .  A
C4351      C4356   1.412       .  A
C4352      C4353   1.405       .  A
C4352     Br4363   1.933       .  S
C4353      C4354   1.417       .  A
C4353     Br4359   1.936       .  S
C4354      C4355   1.414       .  A
C4355      C4356   1.414       .  A
C4355     Br4364   1.927       .  S
C4356     Br4360   1.929       .  S
C4365      C4366   1.414       .  A
C4365      C4370   1.413       .  A
C4366      C4367   1.408       .  A
C4366     Br4378   1.932       .  S
C4367      C4368   1.408       .  A
C4367     Br4382   1.929       .  S
C4368      C4371   1.482       .  S
C4368      C4369   1.407       .  A
C4369      C4370   1.406       .  A
C4369     Br4377   1.931       .  S
C4370     Br4381   1.931       .  S
C4371      C4372   1.407       .  A
C4371      C4376   1.409       .  A
C4372      C4373   1.404       .  A
C4372     Br4383   1.932       .  S
C4373      C4374   1.413       .  A
C4373     Br4379   1.933       .  S
C4374      C4375   1.413       .  A
C4375      C4376   1.410       .  A
C4375     Br4384   1.928       .  S
C4376     Br4380   1.929       .  S
C4385      C4386   1.412   1_565  A
C4385      C4390   1.414       .  A
C4386      C4387   1.409   1_455  A
C4386     Br4398   1.931   1_455  S
C4387      C4388   1.410   1_645  A
C4387     Br4402   1.930       .  S
C4388      C4391   1.486   1_455  S
C4388      C4389   1.408       .  A
C4389      C4390   1.407       .  A
C4389     Br4397   1.930       .  S
C4390     Br4401   1.933       .  S
C4391      C4392   1.405   1_655  A
C4391      C4396   1.412       .  A
C4392      C4393   1.404       .  A
C4392     Br4403   1.933       .  S
C4393      C4394   1.415   1_455  A
C4393     Br4399   1.929       .  S
C4394      C4395   1.411       .  A
C4395      C4396   1.412       .  A
C4395     Br4404   1.926       .  S
C4396     Br4400   1.928       .  S
C4405      C4406   1.411   1_565  A
C4405      C4410   1.409       .  A
C4406      C4407   1.407       .  A
C4406     Br4418   1.931       .  S
C4407      C4408   1.411   1_545  A
C4407     Br4422   1.931       .  S
C4408      C4411   1.479       .  S
C4408      C4409   1.408       .  A
C4409      C4410   1.401       .  A
C4409     Br4417   1.932       .  S
C4410     Br4421   1.932       .  S
C4411      C4412   1.406       .  A
C4411      C4416   1.413       .  A
C4412      C4413   1.399       .  A
C4412     Br4423   1.934       .  S
C4413      C4414   1.411       .  A
C4413     Br4419   1.930       .  S
C4414      C4415   1.407       .  A
C4415      C4416   1.408       .  A
C4415     Br4424   1.928       .  S
C4416     Br4420   1.929       .  S
C4425      C4426   1.415       .  A
C4425      C4430   1.412   1_545  A
C4426      C4427   1.406       .  A
C4426     Br4438   1.933       .  S
C4427      C4428   1.406       .  A
C4427     Br4442   1.931       .  S
C4428      C4431   1.483       .  S
C4428      C4429   1.409   1_545  A
C4429      C4430   1.408       .  A
C4429     Br4437   1.929       .  S
C4430     Br4441   1.931       .  S
C4431      C4432   1.409   1_545  A
C4431      C4436   1.406       .  A
C4432      C4433   1.409       .  A
C4432     Br4443   1.929       .  S
C4433      C4434   1.413   1_565  A
C4433     Br4439   1.930       .  S
C4434      C4435   1.417       .  A
C4435      C4436   1.405       .  A
C4435     Br4444   1.934       .  S
C4436     Br4440   1.932       .  S
C4445      C4446   1.413       .  A
C4445      C4450   1.419   1_565  A
C4446      C4447   1.410       .  A
C4446     Br4458   1.930       .  S
C4447      C4448   1.409   1_565  A
C4447     Br4462   1.929       .  S
C4448      C4451   1.482   1_545  S
C4448      C4449   1.404       .  A
C4449      C4450   1.404       .  A
C4449     Br4457   1.933       .  S
C4450     Br4461   1.936       .  S
C4451      C4452   1.407   1_565  A
C4451      C4456   1.408       .  A
C4452      C4453   1.407       .  A
C4452     Br4463   1.931       .  S
C4453      C4454   1.416   1_545  A
C4453     Br4459   1.932       .  S
C4454      C4455   1.413       .  A
C4455      C4456   1.407       .  A
C4455     Br4464   1.931       .  S
C4456     Br4460   1.930       .  S
C4465      C4466   1.408       .  A
C4465      C4470   1.412   1_565  A
C4466      C4467   1.410       .  A
C4466     Br4478   1.927       .  S
C4467      C4468   1.412       .  A
C4467     Br4482   1.928       .  S
C4468      C4471   1.484       .  S
C4468      C4469   1.406   1_565  A
C4469      C4470   1.404       .  A
C4469     Br4477   1.931       .  S
C4470     Br4481   1.931       .  S
C4471      C4472   1.410       .  A
C4471      C4476   1.408   1_565  A
C4472      C4473   1.408       .  A
C4472     Br4483   1.929       .  S
C4473      C4474   1.409       .  A
C4473     Br4479   1.928       .  S
C4474      C4475   1.412   1_565  A
C4475      C4476   1.406       .  A
C4475     Br4484   1.931       .  S
C4476     Br4480   1.930       .  S
C4485      C4486   1.412   1_545  A
C4485      C4490   1.409       .  A
C4486      C4487   1.407       .  A
C4486     Br4498   1.931   1_655  S
C4487      C4488   1.407   1_565  A
C4487     Br4502   1.930   1_655  S
C4488      C4491   1.487       .  S
C4488      C4489   1.412       .  A
C4489      C4490   1.411       .  A
C4489     Br4497   1.928       .  S
C4490     Br4501   1.928       .  S
C4491      C4492   1.410       .  A
C4491      C4496   1.409   1_545  A
C4492      C4493   1.410       .  A
C4492     Br4503   1.929       .  S
C4493      C4494   1.411       .  A
C4493     Br4499   1.929       .  S
C4494      C4495   1.411   1_545  A
C4495      C4496   1.408       .  A
C4495     Br4504   1.930       .  S
C4496     Br4500   1.930       .  S
C4505      C4506   1.412   1_565  A
C4505      C4510   1.413       .  A
C4506      C4507   1.410       .  A
C4506     Br4518   1.930       .  S
C4507      C4508   1.410   1_545  A
C4507     Br4522   1.929       .  S
C4508      C4511   1.491       .  S
C4508      C4509   1.410       .  A
C4509      C4510   1.409       .  A
C4509     Br4517   1.930       .  S
C4510     Br4521   1.932       .  S
C4511      C4512   1.406       .  A
C4511      C4516   1.413       .  A
C4512      C4513   1.406       .  A
C4512     Br4523   1.933       .  S
C4513      C4514   1.417       .  A
C4513     Br4519   1.932       .  S
C4514      C4515   1.413       .  A
C4515      C4516   1.414       .  A
C4515     Br4524   1.929       .  S
C4516     Br4520   1.928       .  S
C4525      C4526   1.420       .  A
C4525      C4530   1.414   1_545  A
C4526      C4527   1.406       .  A
C4526     Br4538   1.935       .  S
C4527      C4528   1.404       .  A
C4527     Br4542   1.931       .  S
C4528      C4531   1.485       .  S
C4528      C4529   1.410   1_545  A
C4529      C4530   1.411       .  A
C4529     Br4537   1.930       .  S
C4530     Br4541   1.929       .  S
C4531      C4532   1.410   1_545  A
C4531      C4536   1.407       .  A
C4532      C4533   1.409       .  A
C4532     Br4543   1.929       .  S
C4533      C4534   1.412       .  A
C4533     Br4539   1.931       .  S
C4534      C4535   1.413   1_565  A
C4535      C4536   1.407       .  A
C4535     Br4544   1.932       .  S
C4536     Br4540   1.930       .  S
C4545      C4546   1.418   1_565  A
C4545      C4550   1.412       .  A
C4546      C4547   1.404       .  A
C4546     Br4558   1.936       .  S
C4547      C4548   1.405   1_545  A
C4547     Br4562   1.933       .  S
C4548      C4551   1.484       .  S
C4548      C4549   1.410       .  A
C4549      C4550   1.411       .  A
C4549     Br4557   1.928       .  S
C4550     Br4561   1.930       .  S
C4551      C4552   1.409       .  A
C4551      C4556   1.408   1_565  A
C4552      C4553   1.409       .  A
C4552     Br4563   1.929       .  S
C4553      C4554   1.413       .  A
C4553     Br4559   1.932       .  S
C4554      C4555   1.412   1_565  A
C4555      C4556   1.406       .  A
C4555     Br4564   1.931       .  S
C4556     Br4560   1.931       .  S
C4565      C4566   1.412   1_565  A
C4565      C4570   1.416       .  A
C4566      C4567   1.404       .  A
C4566     Br4578   1.928       .  S
C4567      C4568   1.406   1_545  A
C4567     Br4582   1.931       .  S
C4568      C4571   1.478       .  S
C4568      C4569   1.406       .  A
C4569      C4570   1.407       .  A
C4569     Br4577   1.932       .  S
C4570     Br4581   1.930       .  S
C4571      C4572   1.406       .  A
C4571      C4576   1.410       .  A
C4572      C4573   1.402       .  A
C4572     Br4583   1.931       .  S
C4573      C4574   1.410       .  A
C4573     Br4579   1.931       .  S
C4574      C4575   1.409       .  A
C4575      C4576   1.408       .  A
C4575     Br4584   1.928   1_565  S
C4576     Br4580   1.929   1_565  S
C4585      C4586   1.414       .  A
C4585      C4590   1.408       .  A
C4586      C4587   1.407       .  A
C4586     Br4598   1.930       .  S
C4587      C4588   1.407       .  A
C4587     Br4602   1.930       .  S
C4588      C4591   1.490       .  S
C4588      C4589   1.413       .  A
C4589      C4590   1.412       .  A
C4589     Br4597   1.929       .  S
C4590     Br4601   1.926       .  S
C4591      C4592   1.409       .  A
C4591      C4596   1.406       .  A
C4592      C4593   1.412       .  A
C4592     Br4603   1.930       .  S
C4593      C4594   1.416       .  A
C4593     Br4599   1.931       .  S
C4594      C4595   1.418       .  A
C4595      C4596   1.408       .  A
C4595     Br4604   1.930       .  S
C4596     Br4600   1.931       .  S
C4605      C4606   1.413       .  A
C4605      C4610   1.412       .  A
C4606      C4607   1.408       .  A
C4606     Br4618   1.924       .  S
C4607      C4608   1.407       .  A
C4607     Br4622   1.930       .  S
C4608      C4611   1.486       .  S
C4608      C4609   1.410       .  A
C4609      C4610   1.409       .  A
C4609     Br4617   1.930       .  S
C4610     Br4621   1.931       .  S
C4611      C4612   1.407       .  A
C4611      C4616   1.409       .  A
C4612      C4613   1.408       .  A
C4612     Br4623   1.930       .  S
C4613      C4614   1.417       .  A
C4613     Br4619   1.933       .  S
C4614      C4615   1.414       .  A
C4615      C4616   1.408       .  A
C4615     Br4624   1.931       .  S
C4616     Br4620   1.931       .  S
C4625      C4626   1.416       .  A
C4625      C4630   1.418       .  A
C4626      C4627   1.410       .  A
C4626     Br4638   1.929       .  S
C4627      C4628   1.408       .  A
C4627     Br4642   1.930       .  S
C4628      C4631   1.485       .  S
C4628      C4629   1.406       .  A
C4629      C4630   1.406       .  A
C4629     Br4637   1.932       .  S
C4630     Br4641   1.932       .  S
C4631      C4632   1.412       .  A
C4631      C4636   1.405       .  A
C4632      C4633   1.411       .  A
C4632     Br4643   1.928       .  S
C4633      C4634   1.409       .  A
C4633     Br4639   1.927       .  S
C4634      C4635   1.414       .  A
C4635      C4636   1.404       .  A
C4635     Br4644   1.931       .  S
C4636     Br4640   1.932       .  S
C4645      C4646   1.416       .  A
C4645      C4650   1.413       .  A
C4646      C4647   1.406       .  A
C4646     Br4658   1.933       .  S
C4647      C4648   1.406       .  A
C4647     Br4662   1.931       .  S
C4648      C4651   1.485       .  S
C4648      C4649   1.408       .  A
C4649      C4650   1.410       .  A
C4649     Br4657   1.930       .  S
C4650     Br4661   1.920       .  S
C4651      C4652   1.406       .  A
C4651      C4656   1.410       .  A
C4652      C4653   1.405       .  A
C4652     Br4663   1.933       .  S
C4653      C4654   1.418       .  A
C4653     Br4659   1.934       .  S
C4654      C4655   1.414       .  A
C4655      C4656   1.411       .  A
C4655     Br4664   1.930       .  S
C4656     Br4660   1.929       .  S
C4665      C4666   1.414       .  A
C4665      C4670   1.410       .  A
C4666      C4667   1.405       .  A
C4666     Br4678   1.931       .  S
C4667      C4668   1.407       .  A
C4667     Br4682   1.931       .  S
C4668      C4671   1.487       .  S
C4668      C4669   1.411       .  A
C4669      C4670   1.410       .  A
C4669     Br4677   1.928       .  S
C4670     Br4681   1.930       .  S
C4671      C4672   1.403       .  A
C4671      C4676   1.407       .  A
C4672      C4673   1.410       .  A
C4672     Br4683   1.933       .  S
C4673      C4674   1.427       .  A
C4673     Br4679   1.936       .  S
C4674      C4675   1.424       .  A
C4675      C4676   1.411       .  A
C4675     Br4684   1.934       .  S
C4676     Br4680   1.934       .  S
C4685      C4686   1.416       .  A
C4685      C4690   1.417       .  A
C4686      C4687   1.407       .  A
C4686     Br4698   1.932       .  S
C4687      C4688   1.407       .  A
C4687     Br4702   1.930       .  S
C4688      C4691   1.487       .  S
C4688      C4689   1.408       .  A
C4689      C4690   1.410       .  A
C4689     Br4697   1.931       .  S
C4690     Br4701   1.926       .  S
C4691      C4692   1.411       .  A
C4691      C4696   1.409       .  A
C4692      C4693   1.407       .  A
C4692     Br4703   1.930       .  S
C4693      C4694   1.409       .  A
C4693     Br4699   1.931   1_455  S
C4694      C4695   1.412       .  A
C4695      C4696   1.408       .  A
C4695     Br4704   1.930       .  S
C4696     Br4700   1.929       .  S
C4705      C4706   1.415       .  A
C4705      C4710   1.411       .  A
C4706      C4707   1.406       .  A
C4706     Br4718   1.932       .  S
C4707      C4708   1.407       .  A
C4707     Br4722   1.931       .  S
C4708      C4711   1.488       .  S
C4708      C4709   1.412       .  A
C4709      C4710   1.412       .  A
C4709     Br4717   1.929       .  S
C4710     Br4721   1.925       .  S
C4711      C4712   1.411       .  A
C4711      C4716   1.410       .  A
C4712      C4713   1.409       .  A
C4712     Br4723   1.930       .  S
C4713      C4714   1.411       .  A
C4713     Br4719   1.931       .  S
C4714      C4715   1.411       .  A
C4715      C4716   1.408       .  A
C4715     Br4724   1.931       .  S
C4716     Br4720   1.930       .  S
C4725      C4726   1.418       .  A
C4725      C4730   1.412       .  A
C4726      C4727   1.407       .  A
C4726     Br4738   1.932       .  S
C4727      C4728   1.405       .  A
C4727     Br4742   1.930       .  S
C4728      C4731   1.483       .  S
C4728      C4729   1.409       .  A
C4729      C4730   1.408       .  A
C4729     Br4737   1.931       .  S
C4730     Br4741   1.929       .  S
C4731      C4732   1.407       .  A
C4731      C4736   1.410       .  A
C4732      C4733   1.407       .  A
C4732     Br4743   1.929       .  S
C4733      C4734   1.414       .  A
C4733     Br4739   1.931       .  S
C4734      C4735   1.408       .  A
C4735      C4736   1.407       .  A
C4735     Br4744   1.928       .  S
C4736     Br4740   1.930       .  S
C4745      C4746   1.413       .  A
C4745      C4750   1.415       .  A
C4746      C4747   1.407       .  A
C4746     Br4758   1.929       .  S
C4747      C4748   1.408       .  A
C4747     Br4762   1.931       .  S
C4748      C4751   1.486       .  S
C4748      C4749   1.408       .  A
C4749      C4750   1.410       .  A
C4749     Br4757   1.930       .  S
C4750     Br4761   1.930       .  S
C4751      C4752   1.407       .  A
C4751      C4756   1.411       .  A
C4752      C4753   1.403       .  A
C4752     Br4763   1.931       .  S
C4753      C4754   1.410       .  A
C4753     Br4759   1.932       .  S
C4754      C4755   1.411       .  A
C4755      C4756   1.411       .  A
C4755     Br4764   1.928       .  S
C4756     Br4760   1.928       .  S
C4765      C4766   1.415       .  A
C4765      C4770   1.421       .  A
C4766      C4767   1.415       .  A
C4766     Br4778   1.929       .  S
C4767      C4768   1.412       .  A
C4767     Br4782   1.928       .  S
C4768      C4771   1.487       .  S
C4768      C4769   1.403       .  A
C4769      C4770   1.403       .  A
C4769     Br4777   1.936       .  S
C4770     Br4781   1.933       .  S
C4771      C4772   1.409       .  A
C4771      C4776   1.409       .  A
C4772      C4773   1.409       .  A
C4772     Br4783   1.929       .  S
C4773      C4774   1.411       .  A
C4773     Br4779   1.924       .  S
C4774      C4775   1.412       .  A
C4775      C4776   1.408       .  A
C4775     Br4784   1.928       .  S
C4776     Br4780   1.930       .  S
C4785      C4786   1.411       .  A
C4785      C4790   1.412       .  A
C4786      C4787   1.409       .  A
C4786     Br4798   1.932       .  S
C4787      C4788   1.411   1_455  A
C4787     Br4802   1.930   1_455  S
C4788      C4791   1.486       .  S
C4788      C4789   1.409   1_655  A
C4789      C4790   1.406       .  A
C4789     Br4797   1.931   1_455  S
C4790     Br4801   1.933       .  S
C4791      C4792   1.407       .  A
C4791      C4796   1.411       .  A
C4792      C4793   1.406       .  A
C4792     Br4803   1.933       .  S
C4793      C4794   1.416       .  A
C4793     Br4799   1.934       .  S
C4794      C4795   1.412       .  A
C4795      C4796   1.410       .  A
C4795     Br4804   1.930       .  S
C4796     Br4800   1.929       .  S
C4805      C4806   1.419       .  A
C4805      C4810   1.416       .  A
C4806      C4807   1.407       .  A
C4806     Br4818   1.934       .  S
C4807      C4808   1.406       .  A
C4807     Br4822   1.932       .  S
C4808      C4811   1.487       .  S
C4808      C4809   1.409       .  A
C4809      C4810   1.411       .  A
C4809     Br4817   1.930       .  S
C4810     Br4821   1.932       .  S
C4811      C4812   1.411       .  A
C4811      C4816   1.407       .  A
C4812      C4813   1.410       .  A
C4812     Br4823   1.928       .  S
C4813      C4814   1.410       .  A
C4813     Br4819   1.930       .  S
C4814      C4815   1.414       .  A
C4815      C4816   1.406       .  A
C4815     Br4824   1.932       .  S
C4816     Br4820   1.931       .  S
C4825      C4826   1.417       .  A
C4825      C4830   1.412       .  A
C4826      C4827   1.411       .  A
C4826     Br4838   1.931       .  S
C4827      C4828   1.408       .  A
C4827     Br4842   1.929       .  S
C4828      C4831   1.492       .  S
C4828      C4829   1.410       .  A
C4829      C4830   1.410       .  A
C4829     Br4837   1.930       .  S
C4830     Br4841   1.926       .  S
C4831      C4832   1.409       .  A
C4831      C4836   1.409       .  A
C4832      C4833   1.412       .  A
C4832     Br4843   1.929       .  S
C4833      C4834   1.415       .  A
C4833     Br4839   1.930       .  S
C4834      C4835   1.413       .  A
C4835      C4836   1.411       .  A
C4835     Br4844   1.925       .  S
C4836     Br4840   1.930       .  S
C4845      C4846   1.415       .  A
C4845      C4850   1.415       .  A
C4846      C4847   1.409       .  A
C4846     Br4858   1.931       .  S
C4847      C4848   1.409       .  A
C4847     Br4862   1.930       .  S
C4848      C4851   1.484       .  S
C4848      C4849   1.406       .  A
C4849      C4850   1.406       .  A
C4849     Br4857   1.932       .  S
C4850     Br4861   1.933       .  S
C4851      C4852   1.408       .  A
C4851      C4856   1.407       .  A
C4852      C4853   1.409       .  A
C4852     Br4863   1.930       .  S
C4853      C4854   1.415       .  A
C4853     Br4859   1.930       .  S
C4854      C4855   1.413       .  A
C4855      C4856   1.406       .  A
C4855     Br4864   1.927       .  S
C4856     Br4860   1.931       .  S
C4865      C4866   1.422       .  A
C4865      C4870   1.416       .  A
C4866      C4867   1.405       .  A
C4866     Br4878   1.935       .  S
C4867      C4868   1.405       .  A
C4867     Br4882   1.935       .  S
C4868      C4871   1.489       .  S
C4868      C4869   1.411       .  A
C4869      C4870   1.414       .  A
C4869     Br4877   1.930       .  S
C4870     Br4881   1.928       .  S
C4871      C4872   1.411       .  A
C4871      C4876   1.411       .  A
C4872      C4873   1.409       .  A
C4872     Br4883   1.929       .  S
C4873      C4874   1.410       .  A
C4873     Br4879   1.931       .  S
C4874      C4875   1.408       .  A
C4875      C4876   1.407       .  A
C4875     Br4884   1.929       .  S
C4876     Br4880   1.930       .  S
C4885      C4886   1.416       .  A
C4885      C4890   1.415       .  A
C4886      C4887   1.407       .  A
C4886     Br4898   1.934   1_655  S
C4887      C4888   1.408       .  A
C4887     Br4902   1.932   1_655  S
C4888      C4891   1.489       .  S
C4888      C4889   1.409       .  A
C4889      C4890   1.411       .  A
C4889     Br4897   1.929       .  S
C4890     Br4901   1.926       .  S
C4891      C4892   1.407       .  A
C4891      C4896   1.409       .  A
C4892      C4893   1.407       .  A
C4892     Br4903   1.933       .  S
C4893      C4894   1.419       .  A
C4893     Br4899   1.935       .  S
C4894      C4895   1.415       .  A
C4895      C4896   1.412       .  A
C4895     Br4904   1.928   1_655  S
C4896     Br4900   1.929       .  S
C4905      C4906   1.409       .  A
C4905      C4910   1.415       .  A
C4906      C4907   1.414       .  A
C4906     Br4918   1.927       .  S
C4907      C4908   1.414       .  A
C4907     Br4922   1.929       .  S
C4908      C4911   1.492       .  S
C4908      C4909   1.407       .  A
C4909      C4910   1.407       .  A
C4909     Br4917   1.931       .  S
C4910     Br4921   1.929       .  S
C4911      C4912   1.410       .  A
C4911      C4916   1.410       .  A
C4912      C4913   1.411       .  A
C4912     Br4923   1.929       .  S
C4913      C4914   1.414       .  A
C4913     Br4919   1.927       .  S
C4914      C4915   1.412       .  A
C4915      C4916   1.408       .  A
C4915     Br4924   1.931       .  S
C4916     Br4920   1.929       .  S
C4925      C4926   1.429       .  A
C4925      C4930   1.431       .  A
C4926      C4927   1.412       .  A
C4926     Br4938   1.935       .  S
C4927      C4928   1.404       .  A
C4927     Br4942   1.934       .  S
C4928      C4931   1.489       .  S
C4928      C4929   1.404       .  A
C4929      C4930   1.409       .  A
C4929     Br4937   1.938       .  S
C4930     Br4941   1.939       .  S
C4931      C4932   1.410       .  A
C4931      C4936   1.410       .  A
C4932      C4933   1.409       .  A
C4932     Br4943   1.930       .  S
C4933      C4934   1.410       .  A
C4933     Br4939   1.927       .  S
C4934      C4935   1.413       .  A
C4935      C4936   1.407       .  A
C4935     Br4944   1.931       .  S
C4936     Br4940   1.931       .  S
C4945      C4946   1.414       .  A
C4945      C4950   1.413       .  A
C4946      C4947   1.409       .  A
C4946     Br4958   1.930       .  S
C4947      C4948   1.409       .  A
C4947     Br4962   1.930       .  S
C4948      C4951   1.481       .  S
C4948      C4949   1.407       .  A
C4949      C4950   1.404       .  A
C4949     Br4957   1.932       .  S
C4950     Br4961   1.932       .  S
C4951      C4952   1.406       .  A
C4951      C4956   1.411       .  A
C4952      C4953   1.402       .  A
C4952     Br4963   1.932       .  S
C4953      C4954   1.413       .  A
C4953     Br4959   1.933       .  S
C4954      C4955   1.410       .  A
C4955      C4956   1.409       .  A
C4955     Br4964   1.930       .  S
C4956     Br4960   1.929       .  S
C4965      C4966   1.412       .  A
C4965      C4970   1.411       .  A
C4966      C4967   1.405       .  A
C4966     Br4978   1.932       .  S
C4967      C4968   1.408       .  A
C4967     Br4982   1.931       .  S
C4968      C4971   1.485       .  S
C4968      C4969   1.411       .  A
C4969      C4970   1.410       .  A
C4969     Br4977   1.929       .  S
C4970     Br4981   1.931       .  S
C4971      C4972   1.411       .  A
C4971      C4976   1.405       .  A
C4972      C4973   1.412       .  A
C4972     Br4983   1.928       .  S
C4973      C4974   1.412       .  A
C4973     Br4979   1.928       .  S
C4974      C4975   1.419       .  A
C4975      C4976   1.404       .  A
C4975     Br4984   1.935       .  S
C4976     Br4980   1.934       .  S
C4985      C4986   1.414   1_455  A
C4985      C4990   1.410       .  A
C4986      C4987   1.400       .  A
C4986     Br4998   1.931       .  S
C4987      C4988   1.405       .  A
C4987     Br5002   1.934       .  S
C4988      C4991   1.477       .  S
C4988      C4989   1.410   1_655  A
C4989      C4990   1.409       .  A
C4989     Br4997   1.929       .  S
C4990     Br5001   1.928       .  S
C4991      C4992   1.406       .  A
C4991      C4996   1.408   1_655  A
C4992      C4993   1.403       .  A
C4992     Br5003   1.932       .  S
C4993      C4994   1.413       .  A
C4993     Br4999   1.927       .  S
C4994      C4995   1.412       .  A
C4995      C4996   1.405   1_655  A
C4995     Br5004   1.929   1_655  S
C4996     Br5000   1.931       .  S
C5005      C5006   1.420       .  A
C5005      C5010   1.420       .  A
C5006      C5007   1.411       .  A
C5006     Br5018   1.932       .  S
C5007      C5008   1.406       .  A
C5007     Br5022   1.930       .  S
C5008      C5011   1.482       .  S
C5008      C5009   1.405       .  A
C5009      C5010   1.404       .  A
C5009     Br5017   1.934       .  S
C5010     Br5021   1.936       .  S
C5011      C5012   1.409       .  A
C5011      C5016   1.406       .  A
C5012      C5013   1.409       .  A
C5012     Br5023   1.929       .  S
C5013      C5014   1.413       .  A
C5013     Br5019   1.927       .  S
C5014      C5015   1.415       .  A
C5015      C5016   1.404       .  A
C5015     Br5024   1.934   1_655  S
C5016     Br5020   1.932   1_655  S
C5025      C5026   1.411       .  A
C5025      C5030   1.411       .  A
C5026      C5027   1.409       .  A
C5026     Br5038   1.931       .  S
C5027      C5028   1.410       .  A
C5027     Br5042   1.929       .  S
C5028      C5031   1.480       .  S
C5028      C5029   1.407       .  A
C5029      C5030   1.403       .  A
C5029     Br5037   1.931   1_655  S
C5030     Br5041   1.933   1_655  S
C5031      C5032   1.407       .  A
C5031      C5036   1.408       .  A
C5032      C5033   1.407       .  A
C5032     Br5043   1.930       .  S
C5033      C5034   1.414       .  A
C5033     Br5039   1.927       .  S
C5034      C5035   1.410       .  A
C5035      C5036   1.405       .  A
C5035     Br5044   1.929       .  S
C5036     Br5040   1.931       .  S
C5045      C5046   1.427       .  A
C5045      C5050   1.416       .  A
C5046      C5047   1.407       .  A
C5046     Br5058   1.937       .  S
C5047      C5048   1.402       .  A
C5047     Br5062   1.935       .  S
C5048      C5051   1.485       .  S
C5048      C5049   1.408       .  A
C5049      C5050   1.411       .  A
C5049     Br5057   1.930       .  S
C5050     Br5061   1.930       .  S
C5051      C5052   1.409       .  A
C5051      C5056   1.409       .  A
C5052      C5053   1.407       .  A
C5052     Br5063   1.930       .  S
C5053      C5054   1.411       .  A
C5053     Br5059   1.930       .  S
C5054      C5055   1.412       .  A
C5055      C5056   1.408       .  A
C5055     Br5064   1.931       .  S
C5056     Br5060   1.929       .  S
C5065      C5066   1.413       .  A
C5065      C5070   1.414       .  A
C5066      C5067   1.407       .  A
C5066     Br5078   1.933       .  S
C5067      C5068   1.411       .  A
C5067     Br5082   1.932       .  S
C5068      C5071   1.488       .  S
C5068      C5069   1.409       .  A
C5069      C5070   1.407       .  A
C5069     Br5077   1.932       .  S
C5070     Br5081   1.926       .  S
C5071      C5072   1.410       .  A
C5071      C5076   1.410       .  A
C5072      C5073   1.405       .  A
C5072     Br5083   1.933       .  S
C5073      C5074   1.414       .  A
C5073     Br5079   1.933       .  S
C5074      C5075   1.416       .  A
C5075      C5076   1.410       .  A
C5075     Br5084   1.927       .  S
C5076     Br5080   1.932       .  S
C5085      C5086   1.417       .  A
C5085      C5090   1.422       .  A
C5086      C5087   1.411       .  A
C5086     Br5098   1.931       .  S
C5087      C5088   1.409       .  A
C5087     Br5102   1.930       .  S
C5088      C5091   1.484       .  S
C5088      C5089   1.404       .  A
C5089      C5090   1.405       .  A
C5089     Br5097   1.933       .  S
C5090     Br5101   1.936       .  S
C5091      C5092   1.409       .  A
C5091      C5096   1.410       .  A
C5092      C5093   1.406       .  A
C5092     Br5103   1.929       .  S
C5093      C5094   1.409       .  A
C5093     Br5099   1.931       .  S
C5094      C5095   1.409       .  A
C5095      C5096   1.408       .  A
C5095     Br5104   1.929       .  S
C5096     Br5100   1.929       .  S
C5105      C5106   1.411       .  A
C5105      C5110   1.415       .  A
C5106      C5107   1.411       .  A
C5106     Br5118   1.929       .  S
C5107      C5108   1.412       .  A
C5107     Br5122   1.929       .  S
C5108      C5111   1.488       .  S
C5108      C5109   1.407       .  A
C5109      C5110   1.405       .  A
C5109     Br5117   1.932       .  S
C5110     Br5121   1.934       .  S
C5111      C5112   1.409       .  A
C5111      C5116   1.411       .  A
C5112      C5113   1.407       .  A
C5112     Br5123   1.931       .  S
C5113      C5114   1.412       .  A
C5113     Br5119   1.931       .  S
C5114      C5115   1.411       .  A
C5115      C5116   1.409       .  A
C5115     Br5124   1.930       .  S
C5116     Br5120   1.929       .  S
C5125      C5126   1.411       .  A
C5125      C5130   1.408       .  A
C5126      C5127   1.409       .  A
C5126     Br5138   1.930       .  S
C5127      C5128   1.409       .  A
C5127     Br5142   1.929       .  S
C5128      C5131   1.487       .  S
C5128      C5129   1.410       .  A
C5129      C5130   1.407       .  A
C5129     Br5137   1.930       .  S
C5130     Br5141   1.928       .  S
C5131      C5132   1.411       .  A
C5131      C5136   1.408       .  A
C5132      C5133   1.410       .  A
C5132     Br5143   1.929       .  S
C5133      C5134   1.410       .  A
C5133     Br5139   1.928       .  S
C5134      C5135   1.413       .  A
C5135      C5136   1.407       .  A
C5135     Br5144   1.932       .  S
C5136     Br5140   1.931       .  S
C5145      C5146   1.412       .  A
C5145      C5150   1.413       .  A
C5146      C5147   1.408       .  A
C5146     Br5158   1.924       .  S
C5147      C5148   1.409       .  A
C5147     Br5162   1.932       .  S
C5148      C5151   1.493       .  S
C5148      C5149   1.411       .  A
C5149      C5150   1.413       .  A
C5149     Br5157   1.928       .  S
C5150     Br5161   1.930       .  S
C5151      C5152   1.414       .  A
C5151      C5156   1.408       .  A
C5152      C5153   1.414       .  A
C5152     Br5163   1.928       .  S
C5153      C5154   1.409       .  A
C5153     Br5159   1.927       .  S
C5154      C5155   1.414       .  A
C5155      C5156   1.406       .  A
C5155     Br5164   1.931       .  S
C5156     Br5160   1.932       .  S
C5165      C5166   1.414       .  A
C5165      C5170   1.411       .  A
C5166      C5167   1.412       .  A
C5166     Br5178   1.921       .  S
C5167      C5168   1.408       .  A
C5167     Br5182   1.929       .  S
C5168      C5171   1.486       .  S
C5168      C5169   1.408       .  A
C5169      C5170   1.406       .  A
C5169     Br5177   1.933       .  S
C5170     Br5181   1.923       .  S
C5171      C5172   1.409       .  A
C5171      C5176   1.410       .  A
C5172      C5173   1.406       .  A
C5172     Br5183   1.930       .  S
C5173      C5174   1.409       .  A
C5173     Br5179   1.928       .  S
C5174      C5175   1.410       .  A
C5175      C5176   1.409       .  A
C5175     Br5184   1.930       .  S
C5176     Br5180   1.928       .  S
C5185      C5186   1.415       .  A
C5185      C5190   1.414       .  A
C5186      C5187   1.412       .  A
C5186     Br5198   1.931       .  S
C5187      C5188   1.410       .  A
C5187     Br5202   1.929       .  S
C5188      C5191   1.494       .  S
C5188      C5189   1.408       .  A
C5189      C5190   1.410       .  A
C5189     Br5197   1.931       .  S
C5190     Br5201   1.925       .  S
C5191      C5192   1.409       .  A
C5191      C5196   1.408       .  A
C5192      C5193   1.411       .  A
C5192     Br5203   1.931       .  S
C5193      C5194   1.416       .  A
C5193     Br5199   1.929       .  S
C5194      C5195   1.420       .  A
C5195      C5196   1.413       .  A
C5195     Br5204   1.931       .  S
C5196     Br5200   1.931       .  S
C5205      C5206   1.418       .  A
C5205      C5210   1.411       .  A
C5206      C5207   1.406       .  A
C5206     Br5218   1.931       .  S
C5207      C5208   1.405       .  A
C5207     Br5222   1.934       .  S
C5208      C5211   1.489       .  S
C5208      C5209   1.412       .  A
C5209      C5210   1.413       .  A
C5209     Br5217   1.928       .  S
C5210     Br5221   1.928       .  S
C5211      C5212   1.408       .  A
C5211      C5216   1.411       .  A
C5212      C5213   1.407       .  A
C5212     Br5223   1.930       .  S
C5213      C5214   1.412       .  A
C5213     Br5219   1.925       .  S
C5214      C5215   1.412       .  A
C5215      C5216   1.411       .  A
C5215     Br5224   1.930       .  S
C5216     Br5220   1.929       .  S
C5225      C5226   1.411       .  A
C5225      C5230   1.416       .  A
C5226      C5227   1.404       .  A
C5226     Br5238   1.932       .  S
C5227      C5228   1.408       .  A
C5227     Br5242   1.932       .  S
C5228      C5231   1.478       .  S
C5228      C5229   1.406       .  A
C5229      C5230   1.407       .  A
C5229     Br5237   1.929       .  S
C5230     Br5241   1.934       .  S
C5231      C5232   1.407       .  A
C5231      C5236   1.408       .  A
C5232      C5233   1.407       .  A
C5232     Br5243   1.929       .  S
C5233      C5234   1.414       .  A
C5233     Br5239   1.930       .  S
C5234      C5235   1.410       .  A
C5235      C5236   1.404       .  A
C5235     Br5244   1.930       .  S
C5236     Br5240   1.930       .  S
C5245      C5246   1.412       .  A
C5245      C5250   1.411       .  A
C5246      C5247   1.403       .  A
C5246     Br5258   1.932       .  S
C5247      C5248   1.407       .  A
C5247     Br5262   1.931   1_455  S
C5248      C5251   1.483   1_455  S
C5248      C5249   1.410       .  A
C5249      C5250   1.409       .  A
C5249     Br5257   1.928       .  S
C5250     Br5261   1.931       .  S
C5251      C5252   1.403       .  A
C5251      C5256   1.408       .  A
C5252      C5253   1.405       .  A
C5252     Br5263   1.934       .  S
C5253      C5254   1.423       .  A
C5253     Br5259   1.937       .  S
C5254      C5255   1.418       .  A
C5255      C5256   1.412       .  A
C5255     Br5264   1.929       .  S
C5256     Br5260   1.931       .  S
C5265      C5266   1.419       .  A
C5265      C5270   1.420       .  A
C5266      C5267   1.411       .  A
C5266     Br5278   1.929       .  S
C5267      C5268   1.407       .  A
C5267     Br5282   1.931       .  S
C5268      C5271   1.485       .  S
C5268      C5269   1.405       .  A
C5269      C5270   1.407       .  A
C5269     Br5277   1.932       .  S
C5270     Br5281   1.934       .  S
C5271      C5272   1.406       .  A
C5271      C5276   1.411       .  A
C5272      C5273   1.404       .  A
C5272     Br5283   1.931       .  S
C5273      C5274   1.415       .  A
C5273     Br5279   1.934       .  S
C5274      C5275   1.410       .  A
C5275      C5276   1.411       .  A
C5275     Br5284   1.929       .  S
C5276     Br5280   1.928       .  S
C5285      C5286   1.412       .  A
C5285      C5290   1.415       .  A
C5286      C5287   1.410       .  A
C5286     Br5298   1.930       .  S
C5287      C5288   1.410       .  A
C5287     Br5302   1.929       .  S
C5288      C5291   1.492       .  S
C5288      C5289   1.409       .  A
C5289      C5290   1.411       .  A
C5289     Br5297   1.929       .  S
C5290     Br5301   1.932       .  S
C5291      C5292   1.410       .  A
C5291      C5296   1.409       .  A
C5292      C5293   1.409       .  A
C5292     Br5303   1.930       .  S
C5293      C5294   1.411       .  A
C5293     Br5299   1.930       .  S
C5294      C5295   1.416       .  A
C5295      C5296   1.412       .  A
C5295     Br5304   1.931       .  S
C5296     Br5300   1.929       .  S
C5305      C5306   1.415       .  A
C5305      C5310   1.414       .  A
C5306      C5307   1.409       .  A
C5306     Br5318   1.932       .  S
C5307      C5308   1.409       .  A
C5307     Br5322   1.930       .  S
C5308      C5311   1.495       .  S
C5308      C5309   1.411       .  A
C5309      C5310   1.414       .  A
C5309     Br5317   1.929       .  S
C5310     Br5321   1.929       .  S
C5311      C5312   1.412       .  A
C5311      C5316   1.405       .  A
C5312      C5313   1.417       .  A
C5312     Br5323   1.927       .  S
C5313      C5314   1.414       .  A
C5313     Br5319   1.928       .  S
C5314      C5315   1.421       .  A
C5315      C5316   1.407       .  A
C5315     Br5324   1.931       .  S
C5316     Br5320   1.934       .  S
C5325      C5326   1.418       .  A
C5325      C5330   1.417       .  A
C5326      C5327   1.407       .  A
C5326     Br5338   1.935       .  S
C5327      C5328   1.407       .  A
C5327     Br5342   1.933       .  S
C5328      C5331   1.489       .  S
C5328      C5329   1.409       .  A
C5329      C5330   1.412       .  A
C5329     Br5337   1.930       .  S
C5330     Br5341   1.929       .  S
C5331      C5332   1.409       .  A
C5331      C5336   1.410       .  A
C5332      C5333   1.407       .  A
C5332     Br5343   1.932       .  S
C5333      C5334   1.415       .  A
C5333     Br5339   1.934       .  S
C5334      C5335   1.413       .  A
C5335      C5336   1.410       .  A
C5335     Br5344   1.926       .  S
C5336     Br5340   1.929       .  S
C5345      C5346   1.410       .  A
C5345      C5350   1.414       .  A
C5346      C5347   1.407       .  A
C5346     Br5358   1.927       .  S
C5347      C5348   1.409       .  A
C5347     Br5362   1.930       .  S
C5348      C5351   1.485       .  S
C5348      C5349   1.408       .  A
C5349      C5350   1.409       .  A
C5349     Br5357   1.930       .  S
C5350     Br5361   1.931       .  S
C5351      C5352   1.409       .  A
C5351      C5356   1.408       .  A
C5352      C5353   1.407       .  A
C5352     Br5363   1.930       .  S
C5353      C5354   1.413       .  A
C5353     Br5359   1.932       .  S
C5354      C5355   1.413       .  A
C5355      C5356   1.408       .  A
C5355     Br5364   1.932       .  S
C5356     Br5360   1.929       .  S
C5365      C5366   1.409       .  A
C5365      C5370   1.411       .  A
C5366      C5367   1.410       .  A
C5366     Br5378   1.928       .  S
C5367      C5368   1.411       .  A
C5367     Br5382   1.929       .  S
C5368      C5371   1.485       .  S
C5368      C5369   1.408       .  A
C5369      C5370   1.405       .  A
C5369     Br5377   1.931       .  S
C5370     Br5381   1.932       .  S
C5371      C5372   1.409       .  A
C5371      C5376   1.411       .  A
C5372      C5373   1.407       .  A
C5372     Br5383   1.929       .  S
C5373      C5374   1.409       .  A
C5373     Br5379   1.930       .  S
C5374      C5375   1.408       .  A
C5375      C5376   1.407       .  A
C5375     Br5384   1.929       .  S
C5376     Br5380   1.929       .  S
C5385      C5386   1.413       .  A
C5385      C5390   1.413       .  A
C5386      C5387   1.406       .  A
C5386     Br5398   1.929       .  S
C5387      C5388   1.408       .  A
C5387     Br5402   1.932       .  S
C5388      C5391   1.484       .  S
C5388      C5389   1.409       .  A
C5389      C5390   1.409       .  A
C5389     Br5397   1.930       .  S
C5390     Br5401   1.929       .  S
C5391      C5392   1.404       .  A
C5391      C5396   1.412       .  A
C5392      C5393   1.403       .  A
C5392     Br5403   1.934       .  S
C5393      C5394   1.416       .  A
C5393     Br5399   1.927       .  S
C5394      C5395   1.409       .  A
C5395      C5396   1.412       .  A
C5395     Br5404   1.928       .  S
C5396     Br5400   1.927       .  S
C5405      C5406   1.416       .  A
C5405      C5410   1.413       .  A
C5406      C5407   1.405       .  A
C5406     Br5418   1.934       .  S
C5407      C5408   1.407       .  A
C5407     Br5422   1.932       .  S
C5408      C5411   1.488       .  S
C5408      C5409   1.411       .  A
C5409      C5410   1.412       .  A
C5409     Br5417   1.929       .  S
C5410     Br5421   1.927       .  S
C5411      C5412   1.407       .  A
C5411      C5416   1.410       .  A
C5412      C5413   1.405       .  A
C5412     Br5423   1.932       .  S
C5413      C5414   1.419       .  A
C5413     Br5419   1.937       .  S
C5414      C5415   1.415       .  A
C5415      C5416   1.411       .  A
C5415     Br5424   1.928       .  S
C5416     Br5420   1.929       .  S
C5425      C5426   1.413       .  A
C5425      C5430   1.416       .  A
C5426      C5427   1.411       .  A
C5426     Br5438   1.930       .  S
C5427      C5428   1.410       .  A
C5427     Br5442   1.929       .  S
C5428      C5431   1.488       .  S
C5428      C5429   1.407       .  A
C5429      C5430   1.407       .  A
C5429     Br5437   1.931       .  S
C5430     Br5441   1.933       .  S
C5431      C5432   1.407       .  A
C5431      C5436   1.411       .  A
C5432      C5433   1.408       .  A
C5432     Br5443   1.931       .  S
C5433      C5434   1.417       .  A
C5433     Br5439   1.934       .  S
C5434      C5435   1.410       .  A
C5435      C5436   1.410       .  A
C5435     Br5444   1.929   1_655  S
C5436     Br5440   1.928       .  S
C5445      C5446   1.414       .  A
C5445      C5450   1.411       .  A
C5446      C5447   1.404       .  A
C5446     Br5458   1.933       .  S
C5447      C5448   1.407       .  A
C5447     Br5462   1.932       .  S
C5448      C5451   1.484       .  S
C5448      C5449   1.411       .  A
C5449      C5450   1.409       .  A
C5449     Br5457   1.929       .  S
C5450     Br5461   1.931       .  S
C5451      C5452   1.411       .  A
C5451      C5456   1.407       .  A
C5452      C5453   1.410       .  A
C5452     Br5463   1.929       .  S
C5453      C5454   1.409       .  A
C5453     Br5459   1.928       .  S
C5454      C5455   1.415       .  A
C5455      C5456   1.405       .  A
C5455     Br5464   1.932       .  S
C5456     Br5460   1.934       .  S
C5465      C5466   1.413       .  A
C5465      C5470   1.416       .  A
C5466      C5467   1.411       .  A
C5466     Br5478   1.930   1_455  S
C5467      C5468   1.410       .  A
C5467     Br5482   1.930       .  S
C5468      C5471   1.489       .  S
C5468      C5469   1.407       .  A
C5469      C5470   1.409       .  A
C5469     Br5477   1.931       .  S
C5470     Br5481   1.932       .  S
C5471      C5472   1.409       .  A
C5471      C5476   1.408       .  A
C5472      C5473   1.409       .  A
C5472     Br5483   1.930       .  S
C5473      C5474   1.411       .  A
C5473     Br5479   1.928       .  S
C5474      C5475   1.416       .  A
C5475      C5476   1.410       .  A
C5475     Br5484   1.932       .  S
C5476     Br5480   1.929       .  S
C5485      C5486   1.409       .  A
C5485      C5490   1.412       .  A
C5486      C5487   1.406       .  A
C5486     Br5498   1.929       .  S
C5487      C5488   1.409       .  A
C5487     Br5502   1.930       .  S
C5488      C5491   1.484       .  S
C5488      C5489   1.409       .  A
C5489      C5490   1.409       .  A
C5489     Br5497   1.929       .  S
C5490     Br5501   1.930       .  S
C5491      C5492   1.408       .  A
C5491      C5496   1.411       .  A
C5492      C5493   1.405       .  A
C5492     Br5503   1.930       .  S
C5493      C5494   1.409       .  A
C5493     Br5499   1.931       .  S
C5494      C5495   1.408       .  A
C5495      C5496   1.409       .  A
C5495     Br5504   1.929       .  S
C5496     Br5500   1.928       .  S
