geometry optimzed in LAMMPS
_audit_creation_date              2020-12-01 
_audit_creation_method            'lammps2cif' 
_symmetry_space_group_name_H-M    'P1' 
_symmetry_Int_Tables_number       1 
_symmetry_cell_setting            triclinic 
loop_ 
_symmetry_equiv_pos_as_xyz 
  x,y,z 
_cell_length_a                    50.24553145 
_cell_length_b                    50.57392542818033 
_cell_length_c                    37.683460216641194 
_cell_angle_alpha                 89.86629697774787 
_cell_angle_beta                  89.5664185270982 
_cell_angle_gamma                 89.80924798095812 
loop_ 
_atom_site_label 
_atom_site_type_symbol 
_atom_site_fract_x 
_atom_site_fract_y 
_atom_site_fract_z 
_atom_site_charge 
O1          O  0.32669640  0.21650627  0.29953511    -0.81200
C2          C  0.32003988  0.13290916  0.40094664     0.98200
O3          O  0.33764950  0.13581864  0.37723036    -0.70300
O4          O  0.31612019  0.14075180  0.31403746    -0.73900
Al5        Al  0.34144745  0.16106704  0.33938164     1.49000
C6          C  0.30035618  0.14995487  0.29117626     0.93400
O7          O  0.26422081  0.19058516  0.34484179    -0.80100
O8          O  0.31805258  0.22600615  0.39976102    -0.73700
Al9        Al  0.29690553  0.20226608  0.32469489     1.90100
O10         O  0.27473059  0.19292698  0.40101031    -0.72700
O11         O  0.34960960  0.18591412  0.41341299    -0.72600
O12         O  0.30613257  0.15242792  0.41053067    -0.78200
O13         O  0.36977218  0.17873218  0.36250599    -0.76400
O14         O  0.31695550  0.18413507  0.35538750    -1.12600
O15         O  0.35055068  0.18040682  0.29728908    -0.71800
C16         C  0.34470500  0.20283786  0.28480543     0.98900
C17         C  0.25740682  0.19124863  0.37706905     0.95300
Al18       Al  0.31259463  0.18880004  0.40207780     1.55600
O19         O  0.29377045  0.17408000  0.29170550    -0.76400
C20         C  0.37063026  0.18524660  0.39478493     0.99500
C21         C  0.30622564  0.24222751  0.37982346     0.94400
O22         O  0.29560275  0.23437625  0.35148781    -0.81700
C23         C  0.25708330  0.05336884  0.00172389     0.80800
N24         N  0.26262759  0.05792548  0.03650010    -0.77500
C25         C  0.25581876  0.08124093  0.05183083     0.83300
N26         N  0.24351382  0.10005927  0.03238781    -0.77400
C27         C  0.23724526  0.09590964  0.99797995     0.83400
N28         N  0.24441351  0.07254067  0.98256358    -0.79100
C29         C  0.44962565  0.23950093  0.99656120     0.80800
N30         N  0.44037290  0.23607219  0.03033133    -0.77500
C31         C  0.41494435  0.24288355  0.03915615     0.83300
N32         N  0.39892442  0.25357490  0.01404056    -0.77400
C33         C  0.40807478  0.25746842  0.98048979     0.83400
N34         N  0.43329663  0.25031861  0.97175970    -0.79100
O35         O  0.28524916  0.83658858  0.79917991    -0.81200
C36         C  0.36616151  0.82357040  0.90175561     0.98200
O37         O  0.36580137  0.84110261  0.87778288    -0.70300
O38         O  0.36010643  0.82006751  0.81446531    -0.73900
Al39       Al  0.34159832  0.84742734  0.83935721     1.49000
C40         C  0.34992212  0.80514007  0.79151190     0.93400
O41         O  0.30684452  0.77384835  0.84791074    -0.80100
O42         O  0.27307604  0.83405393  0.89721122    -0.73700
Al43       Al  0.29704927  0.80651945  0.82551026     1.90100
O44         O  0.30025702  0.78714545  0.90251787    -0.72700
O45         O  0.31684644  0.85997550  0.91263678    -0.72600
O46         O  0.34474893  0.81281794  0.91175168    -0.78200
O47         O  0.32617742  0.87781875  0.86131544    -0.76400
O48         O  0.31601953  0.82594319  0.85550129    -1.12600
O49         O  0.32324502  0.85771982  0.79746296    -0.71800
C50         C  0.30035230  0.85366080  0.78509191     0.98900
C51         C  0.30288143  0.76867610  0.88031860     0.95300
Al52       Al  0.30943964  0.82377721  0.90200943     1.55600
O53         O  0.32527691  0.80042158  0.79245433    -0.76400
C54         C  0.31909138  0.88025553  0.89328466     0.99500
C55         C  0.25639493  0.82192006  0.87840692     0.94400
O56         O  0.26427413  0.80852412  0.85199886    -0.81700
C57         C  0.44552084  0.77425910  0.49602242     0.80800
N58         N  0.44267014  0.77752070  0.53170823    -0.77500
C59         C  0.42008350  0.76967740  0.54846608     0.83300
N60         N  0.40008173  0.75900472  0.52947146    -0.77400
C61         C  0.40232110  0.75587444  0.49380749     0.83400
N62         N  0.42535699  0.76316183  0.47714145    -0.79100
C63         C  0.26783394  0.95170918  0.49361156     0.80800
N64         N  0.26860626  0.94532872  0.52873597    -0.77500
C65         C  0.26089896  0.92106673  0.54056362     0.83300
N66         N  0.25245936  0.90308464  0.51661769    -0.77400
C67         C  0.25111345  0.90907141  0.48162871     0.83400
N68         N  0.25877319  0.93339255  0.47012782    -0.79100
O69         O  0.67365029  0.80108601  0.29239511    -0.81200
C70         C  0.67560782  0.87853905  0.39771861     0.98200
O71         O  0.67037945  0.87712702  0.36519726    -0.70300
O72         O  0.67866541  0.85893875  0.30111558    -0.73900
Al73       Al  0.65623605  0.84815200  0.33991991     1.49000
C74         C  0.70225658  0.85345582  0.29169264     0.93400
O75         O  0.73077977  0.80468908  0.35866401    -0.80100
O76         O  0.68952698  0.78412068  0.40417092    -0.73700
Al77       Al  0.69980574  0.80512658  0.32884087     1.90100
O78         O  0.71950381  0.82913608  0.40431465    -0.72700
O79         O  0.64640460  0.81276468  0.41111342    -0.72600
O80         O  0.67698006  0.85783006  0.41635173    -0.78200
O81         O  0.62878966  0.84169447  0.37470516    -0.76400
O82         O  0.67956060  0.82492958  0.35781620    -1.12600
O83         O  0.63876656  0.82267639  0.31178629    -0.71800
C84         C  0.64937619  0.80726450  0.28964268     0.98900
C85         C  0.73694554  0.81668260  0.38681106     0.95300
Al86       Al  0.68266823  0.82133742  0.40483808     1.55600
O87         O  0.71480970  0.83463027  0.30575312    -0.76400
C88         C  0.62631493  0.82456212  0.39901173     0.99500
C89         C  0.68888542  0.76650770  0.38050273     0.94400
O90         O  0.68736983  0.77281755  0.34821907    -0.81700
C91         C  0.73769649  0.95444073  0.00372249     0.80800
N92         N  0.73838675  0.95112111  0.03948556    -0.77500
C93         C  0.74767182  0.92822984  0.05359062     0.83300
N94         N  0.75616099  0.90871775  0.03167607    -0.77400
C95         C  0.75554287  0.91155198  0.99582874     0.83400
N96         N  0.74602196  0.93454965  0.98192807    -0.79100
C97         C  0.54200562  0.76399103  0.00536459     0.80800
N98         N  0.55900106  0.74968668  0.98442151    -0.77500
C99         C  0.58286127  0.74144360  0.99719956     0.83300
N100        N  0.58973856  0.74768575  0.03078763    -0.77400
C101        C  0.57340562  0.76223403  0.05184173     0.83400
N102        N  0.54933336  0.77008436  0.03918485    -0.79100
O103        O  0.71796204  0.16645102  0.80970335    -0.81200
C104        C  0.63071100  0.18512362  0.90348015     0.98200
O105        O  0.63236587  0.16803973  0.87927889    -0.70300
O106        O  0.64198198  0.18549067  0.81462720    -0.73900
Al107      Al  0.65874350  0.15978999  0.84418845     1.49000
C108        C  0.65388202  0.19715887  0.78954061     0.93400
O109        O  0.69375865  0.23307519  0.84403021    -0.80100
O110        O  0.72471680  0.17974484  0.90609438    -0.73700
Al111      Al  0.70453259  0.19882136  0.82842092     1.90100
O112        O  0.69392218  0.22480704  0.90144190    -0.72700
O113        O  0.68224938  0.15153107  0.92036762    -0.72600
O114        O  0.65129879  0.19673136  0.91402151    -0.78200
O115        O  0.67247493  0.13142799  0.87078448    -0.76400
O116        O  0.68350841  0.18221714  0.85980355    -1.12600
O117        O  0.67957282  0.14640455  0.80551424    -0.71800
C118        C  0.70373603  0.14845832  0.79652283     0.98900
C119        C  0.69422215  0.24104654  0.87582707     0.95300
Al120      Al  0.68754753  0.18770328  0.90636461     1.55600
O121        O  0.67860704  0.20132031  0.79133800    -0.76400
C122        C  0.67967435  0.13051248  0.90268029     0.99500
C123        C  0.74212402  0.19051755  0.88671978     0.94400
O124        O  0.73550616  0.20040570  0.85735876    -0.81700
C125        C  0.54424166  0.24222448  0.50490079     0.80800
N126        N  0.54959133  0.23597073  0.53938583    -0.77500
C127        C  0.57332535  0.24259650  0.55388831     0.83300
N128        N  0.59171363  0.25507307  0.53354891    -0.77400
C129        C  0.58721833  0.26099993  0.49898046     0.83400
N130        N  0.56325091  0.25454987  0.48470129    -0.79100
C131        C  0.73091939  0.05346460  0.50439534     0.80800
N132        N  0.74345786  0.07126367  0.48284304    -0.77500
C133        C  0.75400705  0.09373701  0.49637021     0.83300
N134        N  0.75132424  0.09875087  0.53150424    -0.77400
C135        C  0.73849336  0.08164238  0.55335855     0.83400
N136        N  0.72858234  0.05885200  0.53973119    -0.79100
O137        O  0.78766786  0.33440626  0.30557315    -0.81200
C138        C  0.86635790  0.32083661  0.40985289     0.98200
O139        O  0.86636428  0.33880167  0.38645324    -0.70300
O140        O  0.86218813  0.31903027  0.32262101    -0.73900
Al141      Al  0.84288397  0.34556160  0.34744471     1.49000
C142        C  0.85300477  0.30375392  0.29941845     0.93400
O143        O  0.80828048  0.27142316  0.35332953    -0.80100
O144        O  0.77356746  0.33104180  0.40241046    -0.73700
Al145      Al  0.79915833  0.30426245  0.33121751     1.90100
O146        O  0.80065977  0.28442919  0.40778069    -0.72700
O147        O  0.81682145  0.35701011  0.42023172    -0.72600
O148        O  0.84488110  0.30987910  0.41912155    -0.78200
O149        O  0.82706146  0.37526791  0.36959145    -0.76400
O150        O  0.81729859  0.32355250  0.36225927    -1.12600
O151        O  0.82500581  0.35657257  0.30529579    -0.71800
C152        C  0.80208036  0.35258396  0.29297265     0.98900
C153        C  0.80315754  0.26607023  0.38540150     0.95300
Al154      Al  0.80977913  0.32089589  0.40845379     1.55600
O155        O  0.82843737  0.29855952  0.29903030    -0.76400
C156        C  0.81998116  0.37746680  0.40154324     0.99500
C157        C  0.75727718  0.31905703  0.38282325     0.94400
O158        O  0.76572764  0.30592717  0.35645282    -0.81700
C159        C  0.95706567  0.26249091  0.01018688     0.80800
N160        N  0.95140375  0.26801799  0.04490042    -0.77500
C161        C  0.92686198  0.26329870  0.05883660     0.83300
N162        N  0.90803332  0.25267381  0.03777562    -0.77400
C163        C  0.91284976  0.24701081  0.00315381     0.83400
N164        N  0.93750379  0.25211923  0.98925044    -0.79100
C165        C  0.76859272  0.45059937  0.00136318     0.80800
N166        N  0.75867553  0.43196260  0.97885027    -0.77500
C167        C  0.75299043  0.40718584  0.99091096     0.83300
N168        N  0.75732770  0.40121116  0.02547409    -0.77400
C169        C  0.76704924  0.41939875  0.04820247     0.83400
N170        N  0.77240451  0.44409116  0.03603026    -0.79100
O171        O  0.16697369  0.28998056  0.80183741    -0.81200
C172        C  0.18559824  0.37569434  0.89527996     0.98200
O173        O  0.16667219  0.37414846  0.87348594    -0.70300
O174        O  0.18389814  0.36560541  0.80814674    -0.73900
Al175      Al  0.15846499  0.34811272  0.83788249     1.49000
C176        C  0.19688121  0.35441214  0.78355744     0.93400
O177        O  0.23312135  0.31474241  0.83645741    -0.80100
O178        O  0.17889392  0.28255442  0.89810761    -0.73700
Al179      Al  0.19902574  0.30353571  0.82099988     1.90100
O180        O  0.22465578  0.31206675  0.89350884    -0.72700
O181        O  0.15149361  0.32522802  0.91402332    -0.72600
O182        O  0.19750686  0.35499965  0.90506959    -0.78200
O183        O  0.13009437  0.33329618  0.86495467    -0.76400
O184        O  0.18170377  0.32366117  0.85256807    -1.12600
O185        O  0.14568053  0.32784682  0.79888031    -0.71800
C186        C  0.14897740  0.30429093  0.78854400     0.98900
C187        C  0.24114294  0.31327908  0.86804984     0.95300
Al188      Al  0.18756899  0.31923778  0.89875877     1.55600
O189        O  0.20131487  0.32987885  0.78492747    -0.76400
C190        C  0.12987789  0.32653364  0.89716564     0.99500
C191        C  0.19029832  0.26560378  0.87870779     0.94400
O192        O  0.20094988  0.27246174  0.84975083    -0.81700
C193        C  0.23923288  0.46088913  0.49887082     0.80800
N194        N  0.24801442  0.44023762  0.47824648    -0.77500
C195        C  0.25490578  0.41663487  0.49354743     0.83300
N196        N  0.25271245  0.41415917  0.52928557    -0.77400
C197        C  0.24377455  0.43410880  0.54998777     0.83400
N198        N  0.23702667  0.45739938  0.53466143    -0.79100
C199        C  0.04304733  0.25603208  0.50422740     0.80800
N200        N  0.04960725  0.26017752  0.53891797    -0.77500
C201        C  0.07472541  0.25500973  0.55062011     0.83300
N202        N  0.09323089  0.24625880  0.52702085    -0.77400
C203        C  0.08722237  0.24220858  0.49258093     0.83400
N204        N  0.06209591  0.24697076  0.48123093    -0.79100
O205        O  0.21051524  0.67347879  0.29604130    -0.81200
C206        C  0.12486799  0.68755995  0.39377096     0.98200
O207        O  0.12698266  0.66920655  0.37119314    -0.70300
O208        O  0.13432940  0.68769698  0.30663274    -0.73900
Al209      Al  0.15305896  0.66242802  0.33436152     1.49000
C210        C  0.14481683  0.70108986  0.28204097     0.93400
O211        O  0.18475970  0.73787661  0.33514038    -0.80100
O212        O  0.21846401  0.68346488  0.39367232    -0.73700
Al213      Al  0.19643925  0.70436952  0.31764736     1.90100
O214        O  0.18791149  0.72822222  0.39161329    -0.72700
O215        O  0.17636846  0.65523469  0.40964019    -0.72600
O216        O  0.14524586  0.70024513  0.40284368    -0.78200
O217        O  0.16905220  0.63420892  0.36000049    -0.76400
O218        O  0.17700752  0.68601477  0.34911060    -1.12600
O219        O  0.17341475  0.65079013  0.29376131    -0.71800
C220        C  0.19665157  0.65548471  0.28228191     0.98900
C221        C  0.18678592  0.74516951  0.36701703     0.95300
Al222      Al  0.18145620  0.69128561  0.39542038     1.55600
O223        O  0.16927006  0.70669299  0.28245189    -0.76400
C224        C  0.17535755  0.63392155  0.39232546     0.99500
C225        C  0.23539810  0.69527456  0.37452776     0.94400
O226        O  0.22821028  0.70598321  0.34580735    -0.81700
C227        C  0.03940675  0.75443749  0.00027313     0.80800
N228        N  0.04320404  0.74977707  0.03543987    -0.77500
C229        C  0.06648609  0.75644160  0.05099594     0.83300
N230        N  0.08597640  0.76760797  0.03102483    -0.77400
C231        C  0.08280134  0.77228974  0.99578675     0.83400
N232        N  0.05937741  0.76531373  0.98034995    -0.79100
C233        C  0.24938837  0.55010954  0.99746907     0.80800
N234        N  0.26099232  0.56961122  0.97760676    -0.77500
C235        C  0.26846503  0.59283452  0.99291417     0.83300
N236        N  0.26410688  0.59631648  0.02825352    -0.77400
C237        C  0.25220909  0.57731431  0.04819317     0.83400
N238        N  0.24462443  0.55440361  0.03261755    -0.79100
O239        O  0.81465170  0.70189832  0.79295784    -0.81200
C240        C  0.81897903  0.63082978  0.90399586     0.98200
O241        O  0.82642460  0.63220937  0.87209873    -0.70300
O242        O  0.81801771  0.64695585  0.80706654    -0.73900
Al243      Al  0.83785272  0.66148142  0.84512129     1.49000
C244        C  0.79402957  0.64772447  0.79736763     0.93400
O245        O  0.75794511  0.69614647  0.86034360    -0.80100
O246        O  0.79978767  0.72432556  0.90313010    -0.73700
Al247      Al  0.78896215  0.69719588  0.83049187     1.90100
O248        O  0.77151064  0.67796790  0.90953956    -0.72700
O249        O  0.84335608  0.69861027  0.91474346    -0.72600
O250        O  0.81502077  0.65169370  0.92176233    -0.78200
O251        O  0.86415415  0.67164309  0.87889201    -0.76400
O252        O  0.81154974  0.68217435  0.86138974    -1.12600
O253        O  0.85216319  0.68815351  0.81555491    -0.71800
C254        C  0.83962714  0.69943375  0.79090979     0.98900
C255        C  0.75293419  0.68644854  0.89047479     0.95300
Al256      Al  0.80781525  0.68763945  0.90810928     1.55600
O257        O  0.77810945  0.66407715  0.81138942    -0.76400
C258        C  0.86462288  0.68892512  0.90287185     0.99500
C259        C  0.79844738  0.74020550  0.87722286     0.94400
O260        O  0.79708980  0.73199183  0.84569314    -0.81700
C261        C  0.77426247  0.55863062  0.49921928     0.80800
N262        N  0.76328800  0.57738530  0.47774545    -0.77500
C263        C  0.75617302  0.60132029  0.49112254     0.83300
N264        N  0.76001024  0.60647406  0.52593692    -0.77400
C265        C  0.77061417  0.58803392  0.54779859     0.83400
N266        N  0.77757500  0.56408709  0.53427861    -0.79100
C267        C  0.95089818  0.74606093  0.50957907     0.80800
N268        N  0.93175299  0.75793351  0.48956508    -0.77500
C269        C  0.90950361  0.76828439  0.50496453     0.83300
N270        N  0.90613738  0.76624035  0.54061674    -0.77400
C271        C  0.92479417  0.75427517  0.56107856     0.83400
N272        N  0.94703111  0.74410401  0.54533456    -0.79100
C273        C  0.85609694  0.72282357  0.69714464    -0.13700
C274        C  0.88389807  0.72470461  0.69833988     0.16700
C275        C  0.89708855  0.71842387  0.73015818     0.02900
C276        C  0.88217888  0.70998771  0.75945953    -0.12200
C277        C  0.85433171  0.70861824  0.75884195    -0.03300
C278        C  0.84123094  0.71493814  0.72679645     0.02200
C279        C  0.89829625  0.73348865  0.66596372     0.09000
N280        N  0.92522248  0.72179193  0.73351002     0.65400
H281        H  0.89290510  0.70474582  0.78392470     0.18300
N282        N  0.81305218  0.71244372  0.72341695     0.75900
H283        H  0.84573448  0.72733614  0.67251798     0.09800
C284        C  0.91665011  0.71714292  0.64774064     0.03500
C285        C  0.92714656  0.72544090  0.61489463    -0.05200
C286        C  0.91902840  0.74944353  0.59932747    -0.23600
C287        C  0.90202494  0.76644947  0.61891222     0.12700
C288        C  0.89181854  0.75823924  0.65175456    -0.12800
N289        N  0.92291684  0.69118102  0.66050502     0.64400
H290        H  0.93990166  0.71200558  0.60019873     0.12300
N291        N  0.89478016  0.79206874  0.60582208     0.61100
H292        H  0.87827562  0.77112566  0.66613373     0.08400
O293        O  0.80318460  0.69051160  0.71465729    -0.40400
O294        O  0.79857771  0.73288117  0.72365849    -0.39600
O295        O  0.93513538  0.74457995  0.73051896    -0.39600
O296        O  0.93927067  0.70323093  0.74590420    -0.37300
O297        O  0.87095647  0.79991643  0.60821891    -0.38200
O298        O  0.91269748  0.80824651  0.59688013    -0.34300
O299        O  0.90483685  0.67399052  0.66296223    -0.35700
O300        O  0.94691087  0.68428320  0.66410165    -0.40000
C301        C  0.75785565  0.62408575  0.71518199    -0.13700
C302        C  0.77853787  0.61053518  0.69779732     0.16700
C303        C  0.80252758  0.60576392  0.71576144     0.02900
C304        C  0.80582492  0.61553408  0.75010728    -0.12200
C305        C  0.78610454  0.63127633  0.76652383    -0.03300
C306        C  0.76136592  0.63442404  0.74931770     0.02200
C307        C  0.77589494  0.60412982  0.65973910     0.09000
N308        N  0.82476021  0.59367689  0.69811970     0.65400
H309        H  0.82498896  0.61271686  0.76258363     0.18300
N310        N  0.74013779  0.64923382  0.76512580     0.75900
H311        H  0.73927697  0.62765195  0.70151707     0.09800
C312        C  0.77532665  0.57788502  0.64737158     0.03500
C313        C  0.77446995  0.57296381  0.61078052    -0.05200
C314        C  0.77386369  0.59389256  0.58613244    -0.23600
C315        C  0.77500245  0.62019566  0.59884781     0.12700
C316        C  0.77579669  0.62500102  0.63531880    -0.12800
N317        N  0.77456999  0.55614357  0.67168327     0.64400
H318        H  0.77332464  0.55268575  0.60174548     0.12300
N319        N  0.77644516  0.64227471  0.57515476     0.61100
H320        H  0.77700328  0.64521973  0.64466857     0.08400
O321        O  0.72317241  0.63756736  0.78435705    -0.40400
O322        O  0.73580158  0.67267629  0.75513231    -0.39600
O323        O  0.83627728  0.60577669  0.67304605    -0.39600
O324        O  0.83582204  0.57366904  0.71168795    -0.37300
O325        O  0.75668984  0.65754828  0.57199834    -0.38200
O326        O  0.79854649  0.64870510  0.56161230    -0.34300
O327        O  0.75404996  0.55236306  0.69051040    -0.35700
O328        O  0.79253502  0.53866324  0.67057159    -0.40000
C329        C  0.96565301  0.74433615  0.98527947    -0.13700
C330        C  0.96572047  0.72450609  0.95919506     0.16700
C331        C  0.99048407  0.71598841  0.94495071     0.02900
C332        C  0.01429260  0.72728206  0.95695274    -0.12200
C333        C  0.01406480  0.74626928  0.98396918    -0.03300
C334        C  0.98948371  0.75492728  0.99799521     0.02200
C335        C  0.93982623  0.71440294  0.94537752     0.09000
N336        N  0.99188252  0.69494869  0.91965240     0.65400
H337        H  0.03313476  0.72007830  0.94657079     0.18300
N338        N  0.98844649  0.77504388  0.02455443     0.75900
H339        H  0.94697054  0.75199516  0.99552190     0.09800
C340        C  0.91865172  0.70680569  0.96821426     0.03500
C341        C  0.89409578  0.69913362  0.95396049    -0.05200
C342        C  0.89037890  0.69798904  0.91717095    -0.23600
C343        C  0.91134415  0.70571392  0.89446643     0.12700
C344        C  0.93560331  0.71403421  0.90858556    -0.12800
N345        N  0.92201562  0.70591498  0.00584767     0.64400
H346        H  0.87811347  0.69321162  0.97171591     0.12300
N347        N  0.90767993  0.70702358  0.85702357     0.61100
H348        H  0.95100648  0.72093801  0.89058910     0.08400
O349        O  0.98074356  0.76944997  0.05561272    -0.40400
O350        O  0.99224683  0.79887468  0.01597296    -0.39600
O351        O  0.00387983  0.69831776  0.89045318    -0.39600
O352        O  0.98344933  0.67225011  0.92787910    -0.37300
O353        O  0.89695042  0.72731583  0.84373669    -0.38200
O354        O  0.92007900  0.69104617  0.83719400    -0.34300
O355        O  0.90688036  0.71933558  0.02577010    -0.35700
O356        O  0.93770214  0.68921298  0.01932617    -0.40000
C357        C  0.09182567  0.72959269  0.22160896    -0.13700
C358        C  0.10144402  0.72125431  0.18833177     0.16700
C359        C  0.12460349  0.70554079  0.18645154     0.02900
C360        C  0.13823495  0.69911982  0.21749168    -0.12200
C361        C  0.12921251  0.70817596  0.25058700    -0.03300
C362        C  0.10557667  0.72309530  0.25279897     0.02200
C363        C  0.08906541  0.73127024  0.15544990     0.09000
N364        N  0.13509446  0.69688703  0.15304364     0.65400
H365        H  0.15619675  0.68723548  0.21571959     0.18300
N366        N  0.09631362  0.73302143  0.28619107     0.75900
H367        H  0.07419640  0.74194425  0.22318542     0.09800
C368        C  0.07211943  0.71550775  0.13481376     0.03500
C369        C  0.06354848  0.72467291  0.10160449    -0.05200
C370        C  0.07190710  0.74934663  0.08843552    -0.23600
C371        C  0.08812677  0.76545437  0.10986556     0.12700
C372        C  0.09659089  0.75625426  0.14298370    -0.12800
N373        N  0.06418155  0.68987537  0.14679282     0.64400
H374        H  0.05132697  0.71193900  0.08541035     0.12300
N375        N  0.09612050  0.79123321  0.09837733     0.61100
H376        H  0.10960586  0.76846771  0.15881126     0.08400
O377        O  0.07506699  0.72425536  0.29976129    -0.40400
O378        O  0.10998321  0.74968701  0.30293764    -0.39600
O379        O  0.14778498  0.71289925  0.13361173    -0.39600
O380        O  0.13561715  0.67253660  0.14583174    -0.37300
O381        O  0.07889105  0.80922008  0.09466343    -0.38200
O382        O  0.12051851  0.79689571  0.09609876    -0.34300
O383        O  0.04379774  0.68751546  0.16628217    -0.35700
O384        O  0.07481283  0.66953309  0.13342864    -0.40000
C385        C  0.22973361  0.64059552  0.19357698    -0.13700
C386        C  0.22252659  0.61416137  0.18803496     0.16700
C387        C  0.20771007  0.60084208  0.21462947     0.02900
C388        C  0.19953437  0.61454634  0.24530791    -0.12200
C389        C  0.20677605  0.64103064  0.25072508    -0.03300
C390        C  0.22206958  0.65403795  0.22442398     0.02200
C391        C  0.22995863  0.60162221  0.15357190     0.09000
N392        N  0.20162325  0.57329956  0.21143855     0.65400
H393        H  0.18792614  0.60429636  0.26538194     0.18300
N394        N  0.22835577  0.68148223  0.22739632     0.75900
H395        H  0.24074363  0.65118305  0.17321420     0.09800
C396        C  0.21067767  0.59147611  0.13005247     0.03500
C397        C  0.21871578  0.58153427  0.09681137    -0.05200
C398        C  0.24540258  0.58283710  0.08572622    -0.23600
C399        C  0.26458589  0.59258338  0.10935322     0.12700
C400        C  0.25681930  0.60160554  0.14299748    -0.12800
N401        N  0.18279444  0.59332324  0.13804826     0.64400
H402        H  0.20374801  0.57471665  0.07843290     0.12300
N403        N  0.29208293  0.59338717  0.09950318     0.61100
H404        H  0.27182218  0.60921334  0.16075514     0.08400
O405        O  0.21185360  0.69865392  0.21704103    -0.40400
O406        O  0.25169465  0.68837748  0.23519573    -0.39600
O407        O  0.22016790  0.55675370  0.20671150    -0.39600
O408        O  0.17841933  0.56513777  0.21823435    -0.37300
O409        O  0.30287626  0.61525459  0.09226612    -0.38200
O410        O  0.30641253  0.57310332  0.10371699    -0.34300
O411        O  0.17251518  0.61552269  0.14512566    -0.35700
O412        O  0.16782329  0.57378283  0.13257243    -0.40000
C413        C  0.02033639  0.71611278  0.49409537    -0.13700
C414        C  0.02341881  0.71910325  0.45726987     0.16700
C415        C  0.00201848  0.72940896  0.43759090     0.02900
C416        C  0.97856196  0.73745898  0.45499520    -0.12200
C417        C  0.97565822  0.73542662  0.49216576    -0.03300
C418        C  0.99686132  0.72394996  0.51159619     0.02200
C419        C  0.04917204  0.71143456  0.44011963     0.09000
N420        N  0.00417967  0.73281795  0.40002702     0.65400
H421        H  0.96274720  0.74586676  0.43913796     0.18300
N422        N  0.99505859  0.71993182  0.54907735     0.75900
H423        H  0.03635655  0.70755264  0.50947266     0.09800
C424        C  0.07330131  0.72281840  0.45109170     0.03500
C425        C  0.09749066  0.71435068  0.43620390    -0.05200
C426        C  0.09846746  0.69468383  0.40983297    -0.23600
C427        C  0.07415898  0.68330129  0.39875491     0.12700
C428        C  0.04990448  0.69173148  0.41391898    -0.12800
N429        N  0.07346377  0.74371235  0.47658608     0.64400
H430        H  0.11563228  0.72370102  0.44505229     0.12300
N431        N  0.07362611  0.66315437  0.37225157     0.61100
H432        H  0.03155665  0.68252163  0.40555873     0.08400
O433        O  0.00661178  0.73568080  0.56976794    -0.40400
O434        O  0.98599758  0.69840994  0.56101994    -0.39600
O435        O  0.99047584  0.71861647  0.37966970    -0.39600
O436        O  0.01651782  0.75248482  0.38755773    -0.37300
O437        O  0.07583775  0.63920066  0.38123702    -0.38200
O438        O  0.06698930  0.66892434  0.34094254    -0.34300
O439        O  0.08452686  0.74028152  0.50619874    -0.35700
O440        O  0.06534767  0.76645879  0.46796048    -0.40000
C441        C  0.22776947  0.51954215  0.43555127    -0.13700
C442        C  0.21126340  0.53577433  0.45630235     0.16700
C443        C  0.20438063  0.52759521  0.49085579     0.02900
C444        C  0.21409961  0.50350854  0.50401337    -0.12200
C445        C  0.23063378  0.48686484  0.48333546    -0.03300
C446        C  0.23777975  0.49545910  0.44871430     0.02200
C447        C  0.20142155  0.56113008  0.44125700     0.09000
N448        N  0.18650640  0.54291221  0.51229628     0.65400
H449        H  0.20790990  0.49753301  0.53041615     0.18300
N450        N  0.25608725  0.48085353  0.42706818     0.75900
H451        H  0.23346949  0.52600228  0.40912934     0.09800
C452        C  0.21051497  0.58577641  0.45363779     0.03500
C453        C  0.20092645  0.60923003  0.43830813    -0.05200
C454        C  0.18274949  0.60867684  0.41009224    -0.23600
C455        C  0.17338058  0.58394869  0.39823258     0.12700
C456        C  0.18278468  0.56052013  0.41377628    -0.12800
N457        N  0.23062025  0.58727107  0.48023313     0.64400
H458        H  0.20871905  0.62795042  0.44747090     0.12300
N459        N  0.15374110  0.58229412  0.37113980     0.61100
H460        H  0.17542440  0.54168510  0.40440574     0.08400
O461        O  0.27963304  0.47742020  0.43761011    -0.40400
O462        O  0.25072542  0.47681385  0.39486177    -0.39600
O463        O  0.16214426  0.54390297  0.50448160    -0.39600
O464        O  0.19401128  0.55146563  0.54200738    -0.37300
O465        O  0.16049871  0.57568262  0.34008351    -0.38200
O466        O  0.12938674  0.58348276  0.37941780    -0.34300
O467        O  0.25427445  0.58093793  0.47249841    -0.35700
O468        O  0.22588363  0.59936449  0.50885849    -0.40000
C469        C  0.07624861  0.27639317  0.64826903    -0.13700
C470        C  0.10288897  0.27135959  0.65652738     0.16700
C471        C  0.11960468  0.25967263  0.63101638     0.02900
C472        C  0.10971086  0.25391171  0.59735417    -0.12200
C473        C  0.08314221  0.25982548  0.58806829    -0.03300
C474        C  0.06620342  0.27068390  0.61454983     0.02200
C475        C  0.11322265  0.27947349  0.69140552     0.09000
N476        N  0.14705858  0.25479620  0.63836442     0.65400
H477        H  0.12336018  0.24535419  0.57816433     0.18300
N478        N  0.03877642  0.27599150  0.60817594     0.75900
H479        H  0.06320566  0.28515100  0.66808276     0.09800
C480        C  0.11517810  0.30642027  0.69997482     0.03500
C481        C  0.12494220  0.31389281  0.73301560    -0.05200
C482        C  0.13372478  0.29489508  0.75761988    -0.23600
C483        C  0.13112205  0.26780313  0.74934564     0.12700
C484        C  0.12095794  0.26031457  0.71628837    -0.12800
N485        N  0.10920492  0.32640461  0.67430275     0.64400
H486        H  0.12735518  0.33479355  0.73836048     0.12300
N487        N  0.13823709  0.24776709  0.77439048     0.61100
H488        H  0.11904178  0.23951157  0.71000304     0.08400
O489        O  0.03203377  0.29865634  0.59735255    -0.40400
O490        O  0.02155844  0.26143006  0.62286598    -0.39600
O491        O  0.15532793  0.23138158  0.64212636    -0.39600
O492        O  0.16350785  0.27358238  0.63710636    -0.37300
O493        O  0.12330087  0.24334008  0.80080064    -0.38200
O494        O  0.15747125  0.23238404  0.76785850    -0.34300
O495        O  0.09034757  0.34242891  0.67989555    -0.35700
O496        O  0.12500030  0.33033361  0.64864021    -0.40000
C497        C  0.22203587  0.37130817  0.69082790    -0.13700
C498        C  0.22506214  0.39880800  0.69269325     0.16700
C499        C  0.21825424  0.41189544  0.72452019     0.02900
C500        C  0.20887650  0.39728252  0.75384146    -0.12200
C501        C  0.20639671  0.36960944  0.75213033    -0.03300
C502        C  0.21289523  0.35669686  0.71988225     0.02200
C503        C  0.23329756  0.41305784  0.65982268     0.09000
N504        N  0.22148590  0.43984304  0.72775987     0.65400
H505        H  0.20401878  0.40758412  0.77823689     0.18300
N506        N  0.20919288  0.32886956  0.71546430     0.75900
H507        H  0.22614812  0.36106883  0.66613676     0.09800
C508        C  0.25588154  0.40460436  0.64044644     0.03500
C509        C  0.25930604  0.41256044  0.60517245    -0.05200
C510        C  0.24099525  0.42954251  0.58871192    -0.23600
C511        C  0.21958140  0.43983395  0.60897223     0.12700
C512        C  0.21586729  0.43144862  0.64425847    -0.12800
N513        N  0.27507461  0.38722625  0.65604730     0.64400
H514        H  0.27626297  0.40503658  0.59033085     0.12300
N515        N  0.20005393  0.45671018  0.59323724     0.61100
H516        H  0.19818966  0.43777226  0.65857565     0.08400
O517        O  0.18656856  0.32011654  0.70729498    -0.40400
O518        O  0.22916796  0.31370798  0.71408233    -0.39600
O519        O  0.20149916  0.45438672  0.73370906    -0.39600
O520        O  0.24455821  0.44952311  0.72936759    -0.37300
O521        O  0.18266729  0.44703878  0.57310117    -0.38200
O522        O  0.19788915  0.48040075  0.60330883    -0.34300
O523        O  0.28060670  0.36541755  0.64149094    -0.35700
O524        O  0.28836969  0.39480540  0.68239414    -0.40000
C525        C  0.23159700  0.47736434  0.98459572    -0.13700
C526        C  0.22415210  0.47672532  0.94876292     0.16700
C527        C  0.22499931  0.50050905  0.92901667     0.02900
C528        C  0.23352278  0.52406961  0.94509200    -0.12200
C529        C  0.24121691  0.52462035  0.98089660    -0.03300
C530        C  0.24024339  0.50078204  0.00060880     0.02200
C531        C  0.21488333  0.45117856  0.93315485     0.09000
N532        N  0.21769732  0.50099918  0.89244416     0.65400
H533        H  0.23393936  0.54207539  0.92946515     0.18300
N534        N  0.24882352  0.49973086  0.03666418     0.75900
H535        H  0.23071293  0.45945833  0.00040128     0.09800
C536        C  0.23008697  0.42776916  0.93649840     0.03500
C537        C  0.21981161  0.40355747  0.92489773    -0.05200
C538        C  0.19466676  0.40189482  0.90888865    -0.23600
C539        C  0.17962704  0.42542918  0.90495780     0.12700
C540        C  0.18969276  0.44962348  0.91731206    -0.12800
N541        N  0.25644333  0.42838643  0.95057837     0.64400
H542        H  0.23208381  0.38601002  0.92753731     0.12300
N543        N  0.15380116  0.42508843  0.88937412     0.61100
H544        H  0.17742899  0.46720605  0.91524326     0.08400
O545        O  0.27326404  0.49722623  0.04341286    -0.40400
O546        O  0.23188495  0.49749726  0.06137370    -0.39600
O547        O  0.19721839  0.51358421  0.88292914    -0.39600
O548        O  0.23367981  0.49228224  0.86925293    -0.37300
O549        O  0.13360967  0.42055740  0.90852069    -0.38200
O550        O  0.15082700  0.43283663  0.85779441    -0.34300
O551        O  0.26218571  0.41447535  0.97731168    -0.35700
O552        O  0.27475731  0.43991014  0.93351805    -0.40000
C553        C  0.81189858  0.55634151  0.91688661    -0.13700
C554        C  0.79565592  0.55517858  0.94727425     0.16700
C555        C  0.78881507  0.57889122  0.96477835     0.02900
C556        C  0.79777845  0.60319177  0.95133393    -0.12200
C557        C  0.81331216  0.60452011  0.92016505    -0.03300
C558        C  0.82074052  0.58059393  0.90324877     0.02200
C559        C  0.78740867  0.52893906  0.96144517     0.09000
N560        N  0.77166754  0.57869276  0.99523178     0.65400
H561        H  0.79148210  0.62118483  0.96455839     0.18300
N562        N  0.83748900  0.58046332  0.87241038     0.75900
H563        H  0.81803284  0.53822153  0.90383826     0.09800
C564        C  0.77372466  0.51055401  0.94032247     0.03500
C565        C  0.76795792  0.48527903  0.95367299    -0.05200
C566        C  0.77548983  0.47768220  0.98814869    -0.23600
C567        C  0.78937586  0.49630526  0.00920720     0.12700
C568        C  0.79500020  0.52155252  0.99575997    -0.12800
N569        N  0.76502172  0.51751209  0.90548584     0.64400
H570        H  0.75719512  0.47168168  0.93694498     0.12300
N571        N  0.79893477  0.48976156  0.04378005     0.61100
H572        H  0.80615217  0.53525253  0.01192591     0.08400
O573        O  0.82780854  0.57513295  0.84247327    -0.40400
O574        O  0.86236799  0.58254059  0.87569871    -0.39600
O575        O  0.77992853  0.58734191  0.02452190    -0.39600
O576        O  0.74736849  0.57309228  0.99179522    -0.37300
O577        O  0.82069923  0.47748053  0.04693134    -0.38200
O578        O  0.78808015  0.49993334  0.07081745    -0.34300
O579        O  0.77456192  0.50570280  0.87878705    -0.35700
O580        O  0.74584632  0.53341466  0.90166284    -0.40000
C581        C  0.05633163  0.31167712  0.91576781    -0.13700
C582        C  0.05743305  0.30012241  0.94961288     0.16700
C583        C  0.08234187  0.29812677  0.96661765     0.02900
C584        C  0.10530201  0.30805446  0.94975223    -0.12200
C585        C  0.10439089  0.31905578  0.91538052    -0.03300
C586        C  0.07936194  0.32084202  0.89848538     0.02200
C587        C  0.03232153  0.29002774  0.96616460     0.09000
N588        N  0.08498142  0.28459081  0.99987664     0.65400
H589        H  0.12422752  0.30587497  0.96304791     0.18300
N590        N  0.07689426  0.33137440  0.86345407     0.75900
H591        H  0.03737643  0.31330689  0.90238058     0.09800
C592        C  0.02285739  0.29919512  0.99930465     0.03500
C593        C  0.99907615  0.28900874  0.01360687    -0.05200
C594        C  0.98366280  0.27034676  0.99512877    -0.23600
C595        C  0.99346639  0.26109982  0.96207328     0.12700
C596        C  0.01744418  0.27098662  0.94805356    -0.12800
N597        N  0.03616630  0.32004527  0.01768050     0.64400
H598        H  0.99199713  0.29688176  0.03867445     0.12300
N599        N  0.97994465  0.24103809  0.94276345     0.61100
H600        H  0.02468036  0.26349574  0.92282534     0.08400
O601        O  0.06876746  0.35478968  0.85919543    -0.40400
O602        O  0.07838047  0.31606677  0.83710673    -0.39600
O603        O  0.07725251  0.26095925  0.00283612    -0.39600
O604        O  0.09857802  0.29467441  0.02438158    -0.37300
O605        O  0.97176462  0.24598426  0.91186325    -0.38200
O606        O  0.98199440  0.21731360  0.95280683    -0.34300
O607        O  0.04003212  0.34193775  0.00236791    -0.35700
O608        O  0.04051001  0.31800940  0.05052462    -0.40000
C609        C  0.88736781  0.27933156  0.14279873    -0.13700
C610        C  0.90709192  0.27909064  0.16878954     0.16700
C611        C  0.93386118  0.27502003  0.15840486     0.02900
C612        C  0.94017466  0.27109960  0.12224623    -0.12200
C613        C  0.92011986  0.27028690  0.09632518    -0.03300
C614        C  0.89345150  0.27495272  0.10713373     0.02200
C615        C  0.89823833  0.28268780  0.20623875     0.09000
N616        N  0.95450770  0.27316220  0.18427098     0.65400
H617        H  0.96068104  0.26731131  0.11469758     0.18300
N618        N  0.87211039  0.27574868  0.08230477     0.75900
H619        H  0.86680265  0.28293233  0.15035001     0.09800
C620        C  0.90547090  0.30481798  0.22672105     0.03500
C621        C  0.89194378  0.31002928  0.25878058    -0.05200
C622        C  0.87064852  0.29402663  0.27032816    -0.23600
C623        C  0.86497264  0.27082430  0.25104004     0.12700
C624        C  0.87895664  0.26529949  0.21967042    -0.12800
N625        N  0.92474914  0.32338646  0.21400667     0.64400
H626        H  0.89669997  0.32792224  0.27314377     0.12300
N627        N  0.84512717  0.25251545  0.26265272     0.61100
H628        H  0.87359938  0.24794857  0.20449498     0.08400
O629        O  0.85398409  0.25856434  0.08411760    -0.40400
O630        O  0.86860415  0.29622870  0.06370393    -0.39600
O631        O  0.95309625  0.25592533  0.20848338    -0.39600
O632        O  0.97572879  0.28613425  0.18016318    -0.37300
O633        O  0.82105414  0.25688162  0.25525118    -0.38200
O634        O  0.85223012  0.22926080  0.27030713    -0.34300
O635        O  0.91954246  0.33767158  0.18743074    -0.35700
O636        O  0.94487227  0.32854200  0.23256840    -0.40000
C637        C  0.79961644  0.40087739  0.21516477    -0.13700
C638        C  0.77792033  0.39091823  0.19628595     0.16700
C639        C  0.76253142  0.37051172  0.21138148     0.02900
C640        C  0.76995466  0.35928573  0.24378624    -0.12200
C641        C  0.79266194  0.36803098  0.26184889    -0.03300
C642        C  0.80706829  0.38973341  0.24772355     0.02200
C643        C  0.77428774  0.39882549  0.15872119     0.09000
N644        N  0.73975421  0.36043927  0.19342287     0.65400
H645        H  0.75833164  0.34294809  0.25413032     0.18300
N646        N  0.82993846  0.40002616  0.26521921     0.75900
H647        H  0.81171055  0.41645146  0.20367469     0.09800
C648        C  0.76999879  0.42530573  0.14849349     0.03500
C649        C  0.76866904  0.43187758  0.11232164    -0.05200
C650        C  0.77122242  0.41232658  0.08600532    -0.23600
C651        C  0.77620216  0.38590152  0.09648734     0.12700
C652        C  0.77752562  0.37946479  0.13250038    -0.12800
N653        N  0.76586256  0.44545837  0.17453558     0.64400
H654        H  0.76460033  0.45218771  0.10487257     0.12300
N655        N  0.78120329  0.36553672  0.07096751     0.61100
H656        H  0.78193938  0.35923678  0.14007322     0.08400
O657        O  0.82739310  0.41921668  0.28632390    -0.40400
O658        O  0.85290707  0.39258998  0.25572540    -0.39600
O659        O  0.73948728  0.33676565  0.18292231    -0.39600
O660        O  0.71891398  0.37432685  0.19134244    -0.37300
O661        O  0.80235979  0.36594191  0.05270381    -0.38200
O662        O  0.76645534  0.34539852  0.07015558    -0.34300
O663        O  0.78088306  0.46539590  0.17515745    -0.35700
O664        O  0.74546943  0.44479620  0.19427292    -0.40000
C665        C  0.80660861  0.49064768  0.48794030    -0.13700
C666        C  0.79626313  0.48260332  0.45528315     0.16700
C667        C  0.77886680  0.49972635  0.43689705     0.02900
C668        C  0.77264796  0.52460495  0.45123417    -0.12200
C669        C  0.78261336  0.53256975  0.48433366    -0.03300
C670        C  0.79996026  0.51520109  0.50262049     0.02200
C671        C  0.80353482  0.45599899  0.44151186     0.09000
N672        N  0.76627698  0.49165065  0.40468507     0.65400
H673        H  0.75899416  0.53730882  0.43696328     0.18300
N674        N  0.81141556  0.52219395  0.53588622     0.75900
H675        H  0.82008513  0.47772022  0.50219151     0.09800
C676        C  0.81540088  0.45233640  0.40780303     0.03500
C677        C  0.82037826  0.42661803  0.39548625    -0.05200
C678        C  0.81516603  0.40426930  0.41678479    -0.23600
C679        C  0.80466058  0.40823643  0.45143284     0.12700
C680        C  0.79842458  0.43387102  0.46289616    -0.12800
N681        N  0.82350607  0.47444910  0.38644872     0.64400
H682        H  0.82906504  0.42419745  0.36928936     0.12300
N683        N  0.80059241  0.38677590  0.47573657     0.61100
H684        H  0.78980149  0.43659246  0.48909586     0.08400
O685        O  0.83293614  0.53496724  0.53647633    -0.40400
O686        O  0.80250942  0.51199016  0.56414661    -0.39600
O687        O  0.75334411  0.47030884  0.40380100    -0.39600
O688        O  0.76519119  0.50731045  0.37859730    -0.37300
O689        O  0.82048230  0.37423775  0.48734928    -0.38200
O690        O  0.77859468  0.38471534  0.49187069    -0.34300
O691        O  0.83791218  0.49225758  0.39962941    -0.35700
O692        O  0.81940421  0.47441843  0.35343848    -0.40000
C693        C  0.93973047  0.31603453  0.43409559    -0.13700
C694        C  0.94118280  0.29020762  0.44756650     0.16700
C695        C  0.91777137  0.27505323  0.45014620     0.02900
C696        C  0.89344079  0.28582150  0.43920833    -0.12200
C697        C  0.89192519  0.31157225  0.42516154    -0.03300
C698        C  0.91541672  0.32684887  0.42309034     0.02200
C699        C  0.96687449  0.28016047  0.46144518     0.09000
N700        N  0.91864104  0.24830031  0.46244944     0.65400
H701        H  0.87582702  0.27353226  0.44045580     0.18300
N702        N  0.91479122  0.35367579  0.41109907     0.75900
H703        H  0.95749627  0.32811102  0.43295148     0.09800
C704        C  0.98936673  0.27717588  0.43939972     0.03500
C705        C  0.01362581  0.26890694  0.45387404    -0.05200
C706        C  0.01614966  0.26331732  0.49038660    -0.23600
C707        C  0.99323625  0.26604211  0.51240841     0.12700
C708        C  0.96909194  0.27463725  0.49770480    -0.12800
N709        N  0.98776489  0.28219820  0.40213819     0.64400
H710        H  0.03067470  0.26714127  0.43626171     0.12300
N711        N  0.99360083  0.25945650  0.54937045     0.61100
H712        H  0.95176164  0.27689816  0.51474639     0.08400
O713        O  0.92585483  0.35991830  0.38211454    -0.40400
O714        O  0.90596272  0.37155065  0.43136478    -0.39600
O715        O  0.90657487  0.24189966  0.49065541    -0.39600
O716        O  0.92859236  0.23054274  0.44292075    -0.37300
O717        O  0.98151483  0.27411480  0.57132629    -0.38200
O718        O  0.00062632  0.23654147  0.55886610    -0.34300
O719        O  0.99953949  0.30190895  0.38883769    -0.35700
O720        O  0.97727471  0.26531785  0.38204196    -0.40000
C721        C  0.79320241  0.15359398  0.46747065    -0.13700
C722        C  0.77960399  0.16086739  0.43664783     0.16700
C723        C  0.76042888  0.14372625  0.42248398     0.02900
C724        C  0.75384644  0.12038130  0.44068542    -0.12200
C725        C  0.76603063  0.11409989  0.47308894    -0.03300
C726        C  0.78686353  0.13023455  0.48551119     0.02200
C727        C  0.78437989  0.18741439  0.42158349     0.09000
N728        N  0.74610113  0.15079049  0.39122982     0.65400
H729        H  0.73778474  0.10824010  0.43085799     0.18300
N730        N  0.80170637  0.12309048  0.51639475     0.75900
H731        H  0.80848767  0.16643374  0.47790693     0.09800
C732        C  0.77473401  0.20983346  0.43947979     0.03500
C733        C  0.78166632  0.23502581  0.42753973    -0.05200
C734        C  0.79798274  0.23855699  0.39738517    -0.23600
C735        C  0.80731816  0.21594346  0.37900158     0.12700
C736        C  0.80032905  0.19057173  0.39122917    -0.12800
N737        N  0.75742556  0.20719687  0.46956460     0.64400
H738        H  0.77363813  0.25196545  0.44162289     0.12300
N739        N  0.82457992  0.21824004  0.34881884     0.61100
H740        H  0.80808796  0.17325834  0.37772574     0.08400
O741        O  0.80400245  0.13924648  0.54165231    -0.40400
O742        O  0.81510285  0.10193464  0.51660002    -0.39600
O743        O  0.74905527  0.13738898  0.36327198    -0.39600
O744        O  0.72835146  0.16847571  0.39267227    -0.37300
O745        O  0.84676736  0.22963648  0.35178623    -0.38200
O746        O  0.81969888  0.20517266  0.32114932    -0.34300
O747        O  0.76581496  0.21238495  0.50023209    -0.35700
O748        O  0.73317284  0.20179912  0.46516668    -0.40000
C749        C  0.69280316  0.32389041  0.43617126    -0.13700
C750        C  0.67777431  0.30382872  0.42038672     0.16700
C751        C  0.68696293  0.29262659  0.38837731     0.02900
C752        C  0.71197587  0.29978586  0.37467436    -0.12200
C753        C  0.72841485  0.31786761  0.39256725    -0.03300
C754        C  0.71786543  0.33104333  0.42269676     0.02200
C755        C  0.65420788  0.29309890  0.43976614     0.09000
N756        N  0.67224805  0.27226516  0.37118281     0.65400
H757        H  0.71930100  0.28957445  0.35130254     0.18300
N758        N  0.73268689  0.35083390  0.44098246     0.75900
H759        H  0.68543651  0.33335389  0.46009777     0.09800
C760        C  0.65698677  0.28346355  0.47463121     0.03500
C761        C  0.63487900  0.27380369  0.49309252    -0.05200
C762        C  0.60944482  0.27292557  0.47763084    -0.23600
C763        C  0.60660420  0.28287803  0.44267245     0.12700
C764        C  0.62891163  0.29280387  0.42413130    -0.12800
N765        N  0.68245378  0.28252825  0.49135902     0.64400
H766        H  0.63807069  0.26626239  0.51964917     0.12300
N767        N  0.58121821  0.28406606  0.42601971     0.61100
H768        H  0.62639016  0.30063317  0.39757640     0.08400
O769        O  0.73633626  0.34872137  0.47396807    -0.40400
O770        O  0.73867264  0.37213437  0.42537513    -0.39600
O771        O  0.66136835  0.27685222  0.34172456    -0.39600
O772        O  0.67298932  0.24893142  0.38307449    -0.37300
O773        O  0.57497610  0.26655231  0.40381747    -0.38200
O774        O  0.56798739  0.30529053  0.42737892    -0.34300
O775        O  0.68646638  0.29567268  0.51922657    -0.35700
O776        O  0.70012814  0.26677786  0.48014846    -0.40000
C777        C  0.80378125  0.19079152  0.94548475    -0.13700
C778        C  0.81966933  0.20951728  0.92783536     0.16700
C779        C  0.81128632  0.21953684  0.89493999     0.02900
C780        C  0.78687113  0.21153991  0.88083651    -0.12200
C781        C  0.77004720  0.19389044  0.89930471    -0.03300
C782        C  0.77926138  0.18276011  0.93148008     0.02200
C783        C  0.84390423  0.21981896  0.94534719     0.09000
N784        N  0.82641200  0.23937858  0.87687818     0.65400
H785        H  0.78045016  0.22044272  0.85616782     0.18300
N786        N  0.76394480  0.16351036  0.95044880     0.75900
H787        H  0.81027833  0.18270152  0.97064117     0.09800
C788        C  0.84149286  0.23660892  0.97477384     0.03500
C789        C  0.86422876  0.24562247  0.99192909    -0.05200
C790        C  0.88997040  0.23774732  0.98123334    -0.23600
C791        C  0.89247412  0.22112195  0.95114966     0.12700
C792        C  0.86943122  0.21270307  0.93318709    -0.12800
N793        N  0.81592397  0.24491426  0.98739383     0.64400
H794        H  0.86152993  0.25892583  0.01404094     0.12300
N795        N  0.91779341  0.21096999  0.94009233     0.61100
H796        H  0.87138704  0.19959179  0.91060993     0.08400
O797        O  0.75437950  0.16900188  0.98061028    -0.40400
O798        O  0.76292422  0.14005428  0.93919535    -0.39600
O799        O  0.83839284  0.23380947  0.84830556    -0.39600
O800        O  0.82474906  0.26315939  0.88674556    -0.37300
O801        O  0.93111372  0.19699330  0.96135769    -0.38200
O802        O  0.92401421  0.21102904  0.90757209    -0.34300
O803        O  0.80490015  0.23258899  0.01263853    -0.35700
O804        O  0.80663500  0.26693572  0.97763586    -0.40000
C805        C  0.72192750  0.31063341  0.87876887    -0.13700
C806        C  0.71048903  0.31992827  0.91041374     0.16700
C807        C  0.69085371  0.30466439  0.92764168     0.02900
C808        C  0.68443532  0.27958830  0.91460168    -0.12200
C809        C  0.69697976  0.26952147  0.88404568    -0.03300
C810        C  0.71521175  0.28568109  0.86533779     0.02200
C811        C  0.72251390  0.34288590  0.92855219     0.09000
N812        N  0.67825794  0.31390318  0.95941898     0.65400
H813        H  0.67032965  0.26749094  0.92921359     0.18300
N814        N  0.72922035  0.27591770  0.83493406     0.75900
H815        H  0.73734971  0.32206920  0.86566777     0.09800
C816        C  0.74184229  0.33861857  0.95476874     0.03500
C817        C  0.75174802  0.35993563  0.97400635    -0.05200
C818        C  0.74326515  0.38594320  0.96719072    -0.23600
C819        C  0.72470797  0.39039368  0.93978760     0.12700
C820        C  0.71427337  0.36881377  0.92091503    -0.12800
N821        N  0.75176192  0.31262331  0.96187938     0.64400
H822        H  0.76638898  0.35607210  0.99433974     0.12300
N823        N  0.71532516  0.41643475  0.93199694     0.61100
H824        H  0.69943219  0.37224525  0.90069549     0.08400
O825        O  0.75195900  0.26564101  0.83853121    -0.40400
O826        O  0.72072463  0.28109367  0.80426838    -0.39600
O827        O  0.65748797  0.32789763  0.95739773    -0.39600
O828        O  0.68525135  0.30470490  0.98908204    -0.37300
O829        O  0.72634390  0.42967463  0.90760207    -0.38200
O830        O  0.69360022  0.42437758  0.94524382    -0.34300
O831        O  0.76831573  0.30218849  0.94077188    -0.35700
O832        O  0.74697448  0.30173384  0.99139377    -0.40000
C833        C  0.70761648  0.09867357  0.72121815    -0.13700
C834        C  0.73022526  0.10764478  0.70284850     0.16700
C835        C  0.74624324  0.12719373  0.71858040     0.02900
C836        C  0.73832351  0.13885225  0.75064343    -0.12200
C837        C  0.71455952  0.13137644  0.76772651    -0.03300
C838        C  0.69979372  0.11011459  0.75348670     0.02200
C839        C  0.73388393  0.10017880  0.66496822     0.09000
N840        N  0.76999204  0.13626875  0.70138770     0.65400
H841        H  0.75019721  0.15482930  0.76115462     0.18300
N842        N  0.67598071  0.10084634  0.77029997     0.75900
H843        H  0.69496595  0.08384369  0.70939718     0.09800
C844        C  0.73450764  0.07361615  0.65355841     0.03500
C845        C  0.73519999  0.06781454  0.61710371    -0.05200
C846        C  0.73543786  0.08814052  0.59159528    -0.23600
C847        C  0.73409455  0.11470801  0.60318466     0.12700
C848        C  0.73350718  0.12038502  0.63945146    -0.12800
N849        N  0.73516463  0.05239619  0.67866390     0.64400
H850        H  0.73634828  0.04735089  0.60877569     0.12300
N851        N  0.73166228  0.13614625  0.57853763     0.61100
H852        H  0.73156261  0.14081324  0.64773979     0.08400
O853        O  0.67734471  0.08309796  0.79380567    -0.40400
O854        O  0.65360271  0.10738174  0.75800665    -0.39600
O855        O  0.77199401  0.16016641  0.69204535    -0.39600
O856        O  0.79013605  0.12134820  0.69976061    -0.37300
O857        O  0.71060723  0.13874496  0.56079085    -0.38200
O858        O  0.74859970  0.15451701  0.57843362    -0.34300
O859        O  0.71641133  0.03587239  0.67978632    -0.35700
O860        O  0.75597351  0.04819097  0.69637381    -0.40000
C861        C  0.63816828  0.21081149  0.69259854    -0.13700
C862        C  0.61144133  0.21864712  0.69444510     0.16700
C863        C  0.59845275  0.21925200  0.72767744     0.02900
C864        C  0.61238893  0.21213849  0.75852338    -0.12200
C865        C  0.63935142  0.20467456  0.75679239    -0.03300
C866        C  0.65210226  0.20369293  0.72320719     0.02200
C867        C  0.59787160  0.22619032  0.66106293     0.09000
N868        N  0.57137506  0.22770689  0.73053075     0.65400
H869        H  0.60227542  0.21301979  0.78395359     0.18300
N870        N  0.67869131  0.19389438  0.71941833     0.75900
H871        H  0.64818819  0.20985514  0.66705011     0.09800
C872        C  0.60368701  0.25048777  0.64462777     0.03500
C873        C  0.59472695  0.25563438  0.61025326    -0.05200
C874        C  0.57972733  0.23693132  0.59155877    -0.23600
C875        C  0.57304145  0.21286398  0.60847830     0.12700
C876        C  0.58211044  0.20771065  0.64309592    -0.12800
N877        N  0.61933689  0.26986970  0.66233787     0.64400
H878        H  0.59990779  0.27430504  0.59786709     0.12300
N879        N  0.55927449  0.19257900  0.58978152     0.61100
H880        H  0.57805098  0.18868917  0.65524012     0.08400
O881        O  0.69744960  0.20971735  0.71278203    -0.40400
O882        O  0.68260926  0.16934111  0.71648111    -0.39600
O883        O  0.55348323  0.21125336  0.73854895    -0.39600
O884        O  0.56582945  0.25204530  0.72943092    -0.37300
O885        O  0.57191716  0.17772729  0.56866528    -0.38200
O886        O  0.53550547  0.18718076  0.59794014    -0.34300
O887        O  0.64327490  0.27340424  0.65321170    -0.35700
O888        O  0.60836828  0.28558926  0.68393964    -0.40000
C889        C  0.63172377  0.72083656  0.92510310    -0.13700
C890        C  0.64487343  0.69959880  0.94181710     0.16700
C891        C  0.63466069  0.69008662  0.97446785     0.02900
C892        C  0.61363772  0.70345093  0.99126641    -0.12200
C893        C  0.60168322  0.72563081  0.97560356    -0.03300
C894        C  0.61013488  0.73372224  0.94156981     0.02200
C895        C  0.67183687  0.69144121  0.92875001     0.09000
N896        N  0.64590819  0.66727861  0.99129666     0.65400
H897        H  0.60685203  0.69671356  0.01711458     0.18300
N898        N  0.59895119  0.75666039  0.92513492     0.75900
H899        H  0.63951463  0.72886401  0.90047691     0.09800
C900        C  0.67728967  0.68663498  0.89248805     0.03500
C901        C  0.70378690  0.68458499  0.88049099    -0.05200
C902        C  0.72515341  0.68632496  0.90421762    -0.23600
C903        C  0.71958858  0.68971232  0.94073148     0.12700
C904        C  0.69324917  0.69245307  0.95248689    -0.12800
N905        N  0.65613090  0.68362530  0.86764871     0.64400
H906        H  0.70768760  0.68152365  0.85247130     0.12300
N907        N  0.74050072  0.69281843  0.96589051     0.61100
H908        H  0.68968860  0.69700726  0.98019889     0.08400
O909        O  0.58468083  0.75423317  0.89793816    -0.40400
O910        O  0.60606817  0.77938170  0.93497576    -0.39600
O911        O  0.65304681  0.66836961  0.02330529    -0.39600
O912        O  0.64561205  0.64525545  0.97563426    -0.37300
O913        O  0.74547037  0.67447421  0.98762964    -0.38200
O914        O  0.75123700  0.71513714  0.96979444    -0.34300
O915        O  0.65539248  0.69787350  0.84013282    -0.35700
O916        O  0.64001184  0.66468786  0.87106145    -0.40000
C917        C  0.70134594  0.00590128  0.94886180    -0.13700
C918        C  0.71358432  0.02935649  0.96022594     0.16700
C919        C  0.73339982  0.02780779  0.98658135     0.02900
C920        C  0.74033896  0.00323634  0.00107931    -0.12200
C921        C  0.72859265  0.97987943  0.98895989    -0.03300
C922        C  0.70885417  0.98125784  0.96269564     0.02200
C923        C  0.70462778  0.05524872  0.94544613     0.09000
N924        N  0.74746810  0.05083060  0.99780666     0.65400
H925        H  0.75575706  0.00228576  0.02101578     0.18300
N926        N  0.69528932  0.95800184  0.95122408     0.75900
H927        H  0.68538150  0.00674853  0.92973524     0.09800
C928        C  0.70192168  0.05916554  0.90855142     0.03500
C929        C  0.69261894  0.08339023  0.89559046    -0.05200
C930        C  0.68642176  0.10444046  0.91852953    -0.23600
C931        C  0.68872670  0.10044183  0.95549564     0.12700
C932        C  0.69755291  0.07596183  0.96855122    -0.12800
N933        N  0.70966515  0.03915913  0.88372315     0.64400
H934        H  0.69141634  0.08605852  0.86711169     0.12300
N935        N  0.68160856  0.12073481  0.98017570     0.61100
H936        H  0.69852732  0.07302715  0.99699628     0.08400
O937        O  0.69529355  0.95192554  0.91876584    -0.40400
O938        O  0.68023820  0.94577125  0.97256716    -0.39600
O939        O  0.74714182  0.05741158  0.03009279    -0.39600
O940        O  0.76302655  0.06243365  0.97648190    -0.37300
O941        O  0.65741639  0.12486112  0.98758074    -0.38200
O942        O  0.69943609  0.13201855  0.99797620    -0.34300
O943        O  0.69285430  0.03011224  0.86223721    -0.35700
O944        O  0.73391178  0.03306495  0.88017234    -0.40000
C945        C  0.80860078  0.80512691  0.92357680    -0.13700
C946        C  0.78590257  0.81920758  0.91276047     0.16700
C947        C  0.77036351  0.80897566  0.88493256     0.02900
C948        C  0.77625123  0.78389318  0.87099256    -0.12200
C949        C  0.79722096  0.76873937  0.88477325    -0.03300
C950        C  0.81419058  0.77997627  0.91012773     0.02200
C951        C  0.77767531  0.84305828  0.93320440     0.09000
N952        N  0.74728352  0.82271741  0.87270097     0.65400
H953        H  0.76309126  0.77538696  0.85145810     0.18300
N954        N  0.83677151  0.76571638  0.92308197     0.75900
H955        H  0.82143012  0.81324946  0.94377794     0.09800
C956        C  0.77535013  0.84176627  0.97046610     0.03500
C957        C  0.76893144  0.86440104  0.98979872    -0.05200
C958        C  0.76390353  0.88879114  0.97303396    -0.23600
C959        C  0.76605270  0.89009185  0.93550392     0.12700
C960        C  0.77293865  0.86729712  0.91607028    -0.12800
N961        N  0.77850121  0.81726658  0.98910744     0.64400
H962        H  0.76709843  0.86241932  0.01833368     0.12300
N963        N  0.76188283  0.91430637  0.91664843     0.61100
H964        H  0.77513711  0.86869265  0.88750873     0.08400
O965        O  0.83784943  0.75902598  0.95532247    -0.40400
O966        O  0.85668007  0.76194549  0.90308959    -0.39600
O967        O  0.74727947  0.83288998  0.84209326    -0.39600
O968        O  0.72585049  0.82148279  0.89028208    -0.37300
O969        O  0.77920514  0.93228526  0.91794481    -0.38200
O970        O  0.74353221  0.91586351  0.89404984    -0.34300
O971        O  0.79637561  0.81487602  0.01225842    -0.35700
O972        O  0.76178448  0.79897542  0.98501779    -0.40000
C973        C  0.81122221  0.80300553  0.39543420    -0.13700
C974        C  0.81340493  0.79944952  0.43233344     0.16700
C975        C  0.79065954  0.80356250  0.45389517     0.02900
C976        C  0.76649532  0.81099384  0.43852432    -0.12200
C977        C  0.76403820  0.81365136  0.40162233    -0.03300
C978        C  0.78678679  0.80993066  0.37997136     0.02200
C979        C  0.83960313  0.79260988  0.44841563     0.09000
N980        N  0.79136899  0.79868171  0.49128415     0.65400
H981        H  0.74910859  0.81310291  0.45550404     0.18300
N982        N  0.78556193  0.81396891  0.34245496     0.75900
H983        H  0.82864316  0.80074406  0.37858707     0.09800
C984        C  0.85478297  0.77065418  0.43693335     0.03500
C985        C  0.87865325  0.76422555  0.45407667    -0.05200
C986        C  0.88760115  0.77904946  0.48305842    -0.23600
C987        C  0.87329555  0.80196721  0.49327756     0.12700
C988        C  0.84951523  0.80842147  0.47587438    -0.12800
N989        N  0.84535663  0.75364840  0.40954595     0.64400
H990        H  0.88933634  0.74651839  0.44615222     0.12300
N991        N  0.88298092  0.81921516  0.52049047     0.61100
H992        H  0.83867608  0.82604711  0.48370489     0.08400
O993        O  0.78936785  0.79481714  0.32160629    -0.40400
O994        O  0.78391058  0.83714747  0.33016921    -0.39600
O995        O  0.78587997  0.81705438  0.51275520    -0.39600
O996        O  0.79389044  0.77531861  0.50264133    -0.37300
O997        O  0.90735851  0.82512214  0.52141315    -0.38200
O998        O  0.86682153  0.83141037  0.54044039    -0.34300
O999        O  0.85864415  0.75103983  0.38121395    -0.35700
O1000       O  0.82585084  0.73860061  0.41557188    -0.40000
C1001       C  0.71419805  0.64097000  0.42650168    -0.13700
C1002       C  0.72583984  0.66600246  0.42998237     0.16700
C1003       C  0.74830271  0.66908800  0.45157969     0.02900
C1004       C  0.75815106  0.64753511  0.47060266    -0.12200
C1005       C  0.74616168  0.62263103  0.46811054    -0.03300
C1006       C  0.72423300  0.61920938  0.44545439     0.02200
C1007       C  0.71280444  0.68953230  0.41470737     0.09000
N1008       N  0.76089167  0.69424308  0.45501672     0.65400
H1009       H  0.77514907  0.65032701  0.48772625     0.18300
N1010       N  0.71062636  0.59447190  0.44387443     0.75900
H1011       H  0.69659433  0.63862976  0.41038620     0.09800
C1012       C  0.71798339  0.69780698  0.37970963     0.03500
C1013       C  0.70785402  0.72207821  0.36778985    -0.05200
C1014       C  0.69303801  0.73853901  0.39066518    -0.23600
C1015       C  0.68662248  0.72936579  0.42507443     0.12700
C1016       C  0.69658469  0.70504556  0.43680099    -0.12800
N1017       N  0.73503466  0.68269400  0.35693626     0.64400
H1018       H  0.71331818  0.72892076  0.34145927     0.12300
N1019       N  0.67029151  0.74468445  0.44852351     0.61100
H1020       H  0.69230194  0.69856134  0.46367780     0.08400
O1021       O  0.71174752  0.58080584  0.41593454    -0.40400
O1022       O  0.69456788  0.58813969  0.46834189    -0.39600
O1023       O  0.75778349  0.70747570  0.48309098    -0.39600
O1024       O  0.77798163  0.70143421  0.43230833    -0.37300
O1025       O  0.64535927  0.74464055  0.44479025    -0.38200
O1026       O  0.68031279  0.75516676  0.47566163    -0.34300
O1027       O  0.72545124  0.67094777  0.33047194    -0.35700
O1028       O  0.75995329  0.68414532  0.36031227    -0.40000
C1029       C  0.71830296  0.90656665  0.22405331    -0.13700
C1030       C  0.72847366  0.89113523  0.19600392     0.16700
C1031       C  0.73258645  0.86377986  0.20154626     0.02900
C1032       C  0.72598740  0.85240999  0.23428517    -0.12200
C1033       C  0.71433711  0.86754519  0.26140450    -0.03300
C1034       C  0.71102676  0.89498250  0.25659015     0.02200
C1035       C  0.73456064  0.90362295  0.16106021     0.09000
N1036       N  0.74148488  0.84690489  0.17337279     0.65400
H1037       H  0.72808754  0.83119904  0.23754739     0.18300
N1038       N  0.70059169  0.91122477  0.28459685     0.75900
H1039       H  0.71596627  0.92771655  0.22062441     0.09800
C1040       C  0.71563406  0.91951316  0.14336123     0.03500
C1041       C  0.72134691  0.92942100  0.10941677    -0.05200
C1042       C  0.74524190  0.92291132  0.09201285    -0.23600
C1043       C  0.76462830  0.90805035  0.11022728     0.12700
C1044       C  0.75933120  0.89892987  0.14465008    -0.12800
N1045       N  0.68969279  0.92388807  0.15814375     0.64400
H1046       H  0.70609853  0.94044313  0.09549258     0.12300
N1047       N  0.78972073  0.90197027  0.09400534     0.61100
H1048       H  0.77445667  0.88759485  0.15833757     0.08400
O1049       O  0.68282513  0.92823540  0.27818680    -0.40400
O1050       O  0.70992146  0.90939502  0.31552848    -0.39600
O1051       O  0.76234525  0.83322721  0.17700679    -0.39600
O1052       O  0.72689404  0.84330367  0.14670845    -0.37300
O1053       O  0.80763411  0.91937254  0.09252643    -0.38200
O1054       O  0.79520849  0.87843081  0.08557068    -0.34300
O1055       O  0.68176599  0.94714121  0.16430770    -0.35700
O1056       O  0.67359014  0.90488489  0.16095898    -0.40000
C1057       C  0.61728493  0.77510033  0.13153024    -0.13700
C1058       C  0.59880459  0.77486907  0.15960192     0.16700
C1059       C  0.57149190  0.77216179  0.15178018     0.02900
C1060       C  0.56329401  0.76933527  0.11637303    -0.12200
C1061       C  0.58198285  0.76866018  0.08845528    -0.03300
C1062       C  0.60922850  0.77204130  0.09636559     0.02200
C1063       C  0.60857437  0.78003107  0.19619240     0.09000
N1064       N  0.55201994  0.77106068  0.17959604     0.65400
H1065       H  0.54236221  0.76648795  0.11087617     0.18300
N1066       N  0.62894222  0.77343798  0.06883634     0.75900
H1067       H  0.63817704  0.77839679  0.13685010     0.09800
C1068       C  0.63024436  0.76570201  0.21028838     0.03500
C1069       C  0.64269353  0.77442644  0.24126928    -0.05200
C1070       C  0.63377191  0.79714796  0.25917757    -0.23600
C1071       C  0.61120739  0.81073712  0.24601434     0.12700
C1072       C  0.59888802  0.80208039  0.21485275    -0.12800
N1073       N  0.64005135  0.74240808  0.19308304     0.64400
H1074       H  0.65967152  0.76346313  0.25115258     0.12300
N1075       N  0.60198186  0.83470247  0.26202981     0.61100
H1076       H  0.58273150  0.81370937  0.20395939     0.08400
O1077       O  0.63054502  0.79384983  0.04962164    -0.40400
O1078       O  0.64658948  0.75570775  0.06638607    -0.39600
O1079       O  0.53357203  0.78803033  0.18088113    -0.39600
O1080       O  0.55132416  0.75133404  0.20014773    -0.37300
O1081       O  0.61355603  0.85622177  0.25502066    -0.38200
O1082       O  0.58023473  0.83495747  0.27898949    -0.34300
O1083       O  0.66377086  0.74152215  0.18187571    -0.35700
O1084       O  0.62612071  0.72169520  0.19302411    -0.40000
C1085       C  0.67677745  0.95252676  0.41661999    -0.13700
C1086       C  0.69697640  0.95397209  0.44211585     0.16700
C1087       C  0.70921343  0.93038289  0.45375127     0.02900
C1088       C  0.70117412  0.90600421  0.43998699    -0.12200
C1089       C  0.68133252  0.90453770  0.41405526    -0.03300
C1090       C  0.66881125  0.92809381  0.40262626     0.02200
C1091       C  0.70435705  0.97997595  0.45763600     0.09000
N1092       N  0.73072992  0.93101234  0.47834496     0.65400
H1093       H  0.71130806  0.88818164  0.44859982     0.18300
N1094       N  0.64708811  0.92738341  0.37829861     0.75900
H1095       H  0.66663755  0.97040012  0.40826243     0.09800
C1096       C  0.71303054  0.00117437  0.43623614     0.03500
C1097       C  0.72084979  0.02498303  0.45193867    -0.05200
C1098       C  0.72024448  0.02841058  0.48905557    -0.23600
C1099       C  0.71030056  0.00743049  0.51031745     0.12700
C1100       C  0.70261925  0.98359703  0.49449202    -0.12800
N1101       N  0.71503930  0.99848271  0.39856168     0.64400
H1102       H  0.72798126  0.04067370  0.43475790     0.12300
N1103       N  0.70802013  0.00971351  0.54800843     0.61100
H1104       H  0.69522987  0.96772571  0.51119743     0.08400
O1105       O  0.64792600  0.94096896  0.35018467    -0.40400
O1106       O  0.62576316  0.91586133  0.38701493    -0.39600
O1107       O  0.72810726  0.92050229  0.50856463    -0.39600
O1108       O  0.75327002  0.93923746  0.46838460    -0.37300
O1109       O  0.68688837  0.01883830  0.56161160    -0.38200
O1110       O  0.72507189  0.99874891  0.56761664    -0.34300
O1111       O  0.69963710  0.01151445  0.37877200    -0.35700
O1112       O  0.73441876  0.98604730  0.38507417    -0.40000
C1113       C  0.21045165  0.87085473  0.41467387    -0.13700
C1114       C  0.22199020  0.84566832  0.41776225     0.16700
C1115       C  0.24477316  0.84226379  0.43891259     0.02900
C1116       C  0.25433738  0.86346254  0.45879802    -0.12200
C1117       C  0.24231201  0.88846268  0.45677181    -0.03300
C1118       C  0.22068985  0.89235534  0.43369485     0.02200
C1119       C  0.20845761  0.82234906  0.40271145     0.09000
N1120       N  0.25825842  0.81731175  0.44048694     0.65400
H1121       H  0.27125008  0.86038985  0.47603955     0.18300
N1122       N  0.20770414  0.91745664  0.43146587     0.75900
H1123       H  0.19285291  0.87357073  0.39860879     0.09800
C1124       C  0.19447460  0.80492259  0.42518892     0.03500
C1125       C  0.18565664  0.78068481  0.41216927    -0.05200
C1126       C  0.19012175  0.77342338  0.37662755    -0.23600
C1127       C  0.20194748  0.79203203  0.35329306     0.12700
C1128       C  0.21138446  0.81615795  0.36665577    -0.12800
N1129       N  0.18981695  0.81131390  0.46165968     0.64400
H1130       H  0.17612150  0.76702146  0.43042274     0.12300
N1131       N  0.20574684  0.78624210  0.31649857     0.61100
H1132       H  0.22179354  0.82969458  0.34911533     0.08400
O1133       O  0.18764529  0.92221157  0.45078946    -0.40400
O1134       O  0.21397868  0.93336844  0.40698756    -0.39600
O1135       O  0.27021000  0.80867196  0.41328916    -0.39600
O1136       O  0.26177981  0.80605728  0.47001306    -0.37300
O1137       O  0.18645986  0.78858513  0.29545813    -0.38200
O1138       O  0.22893654  0.78289578  0.30421912    -0.34300
O1139       O  0.17063707  0.82629776  0.46993860    -0.35700
O1140       O  0.20186362  0.79871524  0.48564209    -0.40000
C1141       C  0.56977070  0.80157366  0.45928774    -0.13700
C1142       C  0.54818728  0.80196446  0.43591952     0.16700
C1143       C  0.55234661  0.81013060  0.40049345     0.02900
C1144       C  0.57786042  0.81776776  0.38915019    -0.12200
C1145       C  0.59945745  0.81762963  0.41262179    -0.03300
C1146       C  0.59522594  0.80938861  0.44807284     0.02200
C1147       C  0.52135666  0.79487662  0.44966589     0.09000
N1148       N  0.53073085  0.81159709  0.37608636     0.65400
H1149       H  0.58080092  0.82383104  0.36179436     0.18300
N1150       N  0.61624544  0.81004742  0.47344189     0.75900
H1151       H  0.56669048  0.79561543  0.48665754     0.09800
C1152       C  0.50757904  0.77226264  0.43791618     0.03500
C1153       C  0.48214741  0.76661177  0.45182390    -0.05200
C1154       C  0.47062421  0.78260112  0.47828679    -0.23600
C1155       C  0.48442014  0.80534254  0.48957979     0.12700
C1156       C  0.50951431  0.81120386  0.47531236    -0.12800
N1157       N  0.51986152  0.75399400  0.41379951     0.64400
H1158       H  0.47205084  0.74881438  0.44343038     0.12300
N1159       N  0.47286014  0.82312372  0.51483954     0.61100
H1160       H  0.51980126  0.82877751  0.48415697     0.08400
O1161       O  0.62316764  0.78910925  0.48918551    -0.40400
O1162       O  0.62501410  0.83200809  0.48395822    -0.39600
O1163       O  0.51306063  0.82915763  0.38002198    -0.39600
O1164       O  0.53160897  0.79839263  0.34772248    -0.37300
O1165       O  0.48326564  0.82578189  0.54498742    -0.38200
O1166       O  0.45429316  0.83844491  0.50553826    -0.34300
O1167       O  0.54178004  0.74330187  0.42168021    -0.35700
O1168       O  0.50719628  0.74575556  0.38725182    -0.40000
C1169       C  0.30677774  0.71992222  0.38574195    -0.13700
C1170       C  0.31292904  0.70989398  0.41939520     0.16700
C1171       C  0.29459559  0.69302757  0.43648534     0.02900
C1172       C  0.27021158  0.68725636  0.42044836    -0.12200
C1173       C  0.26330682  0.69826357  0.38740235    -0.03300
C1174       C  0.28229843  0.71439191  0.36969381     0.02200
C1175       C  0.33641018  0.72047480  0.43846197     0.09000
N1176       N  0.30017177  0.68228330  0.47074941     0.65400
H1177       H  0.25621911  0.67482722  0.43471506     0.18300
N1178       N  0.27645466  0.72691800  0.33662797     0.75900
H1179       H  0.32049057  0.73332494  0.37262399     0.09800
C1180       C  0.36264782  0.71748872  0.42543136     0.03500
C1181       C  0.38389927  0.72975569  0.44301336    -0.05200
C1182       C  0.37945338  0.74493016  0.47373697    -0.23600
C1183       C  0.35297292  0.74840595  0.48606401     0.12700
C1184       C  0.33194040  0.73605677  0.46861051    -0.12800
N1185       N  0.36805807  0.70133738  0.39513081     0.64400
H1186       H  0.40400786  0.72670896  0.43323210     0.12300
N1187       N  0.34687360  0.76558563  0.51515075     0.61100
H1188       H  0.31176623  0.73945002  0.47797168     0.08400
O1189       O  0.28054626  0.71464581  0.30798025    -0.40400
O1190       O  0.27176459  0.75143582  0.33583098    -0.39600
O1191       O  0.28754775  0.69055244  0.49761240    -0.39600
O1192       O  0.31513864  0.66231633  0.47349614    -0.37300
O1193       O  0.34929235  0.79027466  0.51146067    -0.38200
O1194       O  0.33618689  0.75642003  0.54296311    -0.34300
O1195       O  0.37821606  0.71142616  0.36755230    -0.35700
O1196       O  0.36565155  0.67655973  0.39740002    -0.40000
C1197       C  0.19174671  0.83123419  0.93063206    -0.13700
C1198       C  0.17703781  0.80929265  0.91903363     0.16700
C1199       C  0.18697634  0.79444314  0.89014477     0.02900
C1200       C  0.21182513  0.80059684  0.87517927    -0.12200
C1201       C  0.22775745  0.82087042  0.88910048    -0.03300
C1202       C  0.21691961  0.83703140  0.91618111     0.02200
C1203       C  0.15225838  0.80131591  0.93850392     0.09000
N1204       N  0.17322029  0.77161993  0.87763334     0.65400
H1205       H  0.21953800  0.78792236  0.85433574     0.18300
N1206       N  0.23128549  0.85916791  0.92963644     0.75900
H1207       H  0.18392295  0.84359670  0.95173313     0.09800
C1208       C  0.15231393  0.79796994  0.97566174     0.03500
C1209       C  0.12928555  0.78957937  0.99337380    -0.05200
C1210       C  0.10568360  0.78367673  0.97506271    -0.23600
C1211       C  0.10538021  0.78776576  0.93785408     0.12700
C1212       C  0.12848805  0.79655725  0.92008284    -0.12800
N1213       N  0.17604302  0.80169965  0.99577789     0.64400
H1214       H  0.13042163  0.78681588  0.02182042     0.12300
N1215       N  0.08195832  0.78307229  0.91758095     0.61100
H1216       H  0.12784008  0.79964660  0.89164578     0.08400
O1217       O  0.23982842  0.85880811  0.96103852    -0.40400
O1218       O  0.23259631  0.88023706  0.91171028    -0.39600
O1219       O  0.16511560  0.77088929  0.84603802    -0.39600
O1220       O  0.17250258  0.75093156  0.89640178    -0.37300
O1221       O  0.06435044  0.80083705  0.91535699    -0.38200
O1222       O  0.08073045  0.76303603  0.89777544    -0.34300
O1223       O  0.17668353  0.81915251  0.01963747    -0.35700
O1224       O  0.19507686  0.78549487  0.99277341    -0.40000
C1225       C  0.28280992  0.64250518  0.91826447    -0.13700
C1226       C  0.29657939  0.66214509  0.93682274     0.16700
C1227       C  0.30361029  0.65744662  0.97233672     0.02900
C1228       C  0.29533668  0.63422681  0.98944181    -0.12200
C1229       C  0.28004484  0.61511550  0.97175683    -0.03300
C1230       C  0.27454827  0.61909568  0.93531062     0.02200
C1231       C  0.29891147  0.68912347  0.92141248     0.09000
N1232       N  0.31837683  0.67664214  0.99171621     0.65400
H1233       H  0.30037659  0.63150546  0.01711630     0.18300
N1234       N  0.25864157  0.60080124  0.91601571     0.75900
H1235       H  0.27695739  0.64610191  0.89105025     0.09800
C1236       C  0.31739830  0.69552299  0.89442462     0.03500
C1237       C  0.31797370  0.72129897  0.88018198    -0.05200
C1238       C  0.30064455  0.74099616  0.89307272    -0.23600
C1239       C  0.28198738  0.73432693  0.91983304     0.12700
C1240       C  0.28128411  0.70864892  0.93363860    -0.12800
N1241       N  0.33643103  0.67642900  0.88246836     0.64400
H1242       H  0.33263356  0.72618261  0.85999267     0.12300
N1243       N  0.26275115  0.75314289  0.93213002     0.61100
H1244       H  0.26663708  0.70380794  0.95388438     0.08400
O1245       O  0.26953290  0.58536497  0.89397867    -0.40400
O1246       O  0.23361133  0.60288304  0.91690135    -0.39600
O1247       O  0.30695896  0.69039545  0.01524936    -0.39600
O1248       O  0.34332673  0.67780948  0.98803489    -0.37300
O1249       O  0.26575971  0.76416890  0.96182395    -0.38200
O1250       O  0.24077793  0.75522495  0.91638139    -0.34300
O1251       O  0.33516749  0.66752229  0.85128662    -0.35700
O1252       O  0.35667024  0.67156523  0.90103603    -0.40000
C1253       C  0.25668490  0.88337447  0.62873732    -0.13700
C1254       C  0.26857852  0.90129938  0.65201989     0.16700
C1255       C  0.27688081  0.92606507  0.63884446     0.02900
C1256       C  0.27381894  0.93218399  0.60281692    -0.12200
C1257       C  0.26247315  0.91406097  0.57906765    -0.03300
C1258       C  0.25347789  0.88943562  0.59272720     0.02200
C1259       C  0.27563980  0.89224056  0.68834160     0.09000
N1260       N  0.28859274  0.94519063  0.66177838     0.65400
H1261       H  0.28064348  0.95125094  0.59348759     0.18300
N1262       N  0.24165535  0.86994135  0.57047339     0.75900
H1263       H  0.25078641  0.86400872  0.63825819     0.09800
C1264       C  0.25664531  0.88113248  0.71173530     0.03500
C1265       C  0.26490292  0.86913765  0.74346329    -0.05200
C1266       C  0.29195448  0.86811507  0.75261528    -0.23600
C1267       C  0.31087426  0.87970573  0.72928120     0.12700
C1268       C  0.30255803  0.89160947  0.69772421    -0.12800
N1269       N  0.22891433  0.88192305  0.70359644     0.64400
H1270       H  0.25005942  0.86049531  0.76093470     0.12300
N1271       N  0.33883026  0.87772534  0.73564100     0.61100
H1272       H  0.31748370  0.89915136  0.67945566     0.08400
O1273       O  0.21664992  0.86866381  0.56822180    -0.40400
O1274       O  0.25583367  0.85157801  0.55773691    -0.39600
O1275       O  0.31228726  0.95251921  0.65654291    -0.39600
O1276       O  0.27422597  0.95732119  0.68404718    -0.37300
O1277       O  0.35129515  0.85713203  0.72638311    -0.38200
O1278       O  0.35163323  0.89791814  0.74505213    -0.34300
O1279       O  0.21630988  0.86066938  0.69907573    -0.35700
O1280       O  0.21635057  0.90351819  0.70560394    -0.40000
C1281       C  0.40260286  0.79882649  0.71865615    -0.13700
C1282       C  0.38927037  0.78265535  0.69449841     0.16700
C1283       C  0.36512469  0.77083257  0.70468698     0.02900
C1284       C  0.35368821  0.77683950  0.73767357    -0.12200
C1285       C  0.36588784  0.79470023  0.76109027    -0.03300
C1286       C  0.39130913  0.80473742  0.75189500     0.02200
C1287       C  0.39952478  0.78002356  0.65774870     0.09000
N1288       N  0.35105973  0.75417236  0.68072756     0.65400
H1289       H  0.33440262  0.76849465  0.74408221     0.18300
N1290       N  0.40556059  0.82168675  0.77523697     0.75900
H1291       H  0.42145781  0.80765001  0.71115583     0.09800
C1292       C  0.39689356  0.80111314  0.63349593     0.03500
C1293       C  0.40526429  0.79794319  0.59823448    -0.05200
C1294       C  0.41624840  0.77394589  0.58672687    -0.23600
C1295       C  0.41964551  0.75309803  0.61112431     0.12700
C1296       C  0.41108150  0.75616764  0.64641909    -0.12800
N1297       N  0.38421537  0.82525815  0.64386830     0.64400
H1298       H  0.40206653  0.81384570  0.57938991     0.12300
N1299       N  0.43146316  0.72867259  0.60015628     0.61100
H1300       H  0.41328922  0.73991191  0.66496010     0.08400
O1301       O  0.40249615  0.84640803  0.77299560    -0.40400
O1302       O  0.42500891  0.81246827  0.79231803    -0.39600
O1303       O  0.35103853  0.72946899  0.68546428    -0.39600
O1304       O  0.33595414  0.76430100  0.65777000    -0.37300
O1305       O  0.45592518  0.72769261  0.59240081    -0.38200
O1306       O  0.41740351  0.70815137  0.59762310    -0.34300
O1307       O  0.39785457  0.84594389  0.64766068    -0.35700
O1308       O  0.35914880  0.82659422  0.64540733    -0.40000
C1309       C  0.44020588  0.81727235  0.92375897    -0.13700
C1310       C  0.43999454  0.79590785  0.94746617     0.16700
C1311       C  0.41561854  0.78391998  0.95637939     0.02900
C1312       C  0.39191768  0.79339444  0.94153425    -0.12200
C1313       C  0.39186099  0.81500210  0.91785478    -0.03300
C1314       C  0.41653473  0.82694142  0.90899104     0.02200
C1315       C  0.46543361  0.78683584  0.96310287     0.09000
N1316       N  0.41456636  0.76246004  0.98107285     0.65400
H1317       H  0.37344025  0.78371373  0.94874018     0.18300
N1318       N  0.41803452  0.84903057  0.88535333     0.75900
H1319       H  0.45892004  0.82663676  0.91684543     0.09800
C1320       C  0.47910002  0.76457668  0.94984896     0.03500
C1321       C  0.50384069  0.75743141  0.96405015    -0.05200
C1322       C  0.51548926  0.77220398  0.99146839    -0.23600
C1323       C  0.50143664  0.79438227  0.00495549     0.12700
C1324       C  0.47665791  0.80139846  0.99074905    -0.12800
N1325       N  0.46844103  0.74950259  0.92127808     0.64400
H1326       H  0.51403076  0.74026546  0.95335175     0.12300
N1327       N  0.51254720  0.81081277  0.03180869     0.61100
H1328       H  0.46633543  0.81869121  0.00087313     0.08400
O1329       O  0.41449540  0.87209497  0.89721248    -0.40400
O1330       O  0.42737137  0.84595229  0.85446894    -0.39600
O1331       O  0.41435323  0.76722405  0.01392509    -0.39600
O1332       O  0.40891479  0.73955979  0.97032772    -0.37300
O1333       O  0.52970204  0.82793827  0.02343200    -0.38200
O1334       O  0.50229408  0.81110514  0.06247724    -0.34300
O1335       O  0.47207151  0.75714990  0.88972128    -0.35700
O1336       O  0.45955354  0.72658377  0.92711057    -0.40000
C1337       C  0.51741183  0.20489574  0.99341777    -0.13700
C1338       C  0.52923685  0.21736974  0.96402044     0.16700
C1339       C  0.51516642  0.23747115  0.94623995     0.02900
C1340       C  0.48944225  0.24434549  0.95735838    -0.12200
C1341       C  0.47721657  0.23165432  0.98640409    -0.03300
C1342       C  0.49155514  0.21171634  0.00462018     0.02200
C1343       C  0.55519351  0.20778963  0.94996341     0.09000
N1344       N  0.52697668  0.25129850  0.91700815     0.65400
H1345       H  0.47909375  0.25995026  0.94327779     0.18300
N1346       N  0.47957626  0.19697818  0.03291717     0.75900
H1347       H  0.52786242  0.18900794  0.00678267     0.09800
C1348       C  0.57895656  0.21080890  0.96902711     0.03500
C1349       C  0.60330175  0.20312092  0.95366070    -0.05200
C1350       C  0.60439354  0.19174021  0.91961439    -0.23600
C1351       C  0.58026819  0.18760633  0.90132181     0.12700
C1352       C  0.55609293  0.19588245  0.91642240    -0.12800
N1353       N  0.57870801  0.22230099  0.00361169     0.64400
H1354       H  0.62145004  0.20616152  0.96843713     0.12300
N1355       N  0.57994721  0.17583878  0.86689588     0.61100
H1356       H  0.53784234  0.19311986  0.90174707     0.08400
O1357       O  0.48839342  0.19904784  0.06404677    -0.40400
O1358       O  0.46243038  0.17956705  0.02609868    -0.39600
O1359       O  0.51744291  0.24892594  0.88630317    -0.39600
O1360       O  0.54503497  0.26804400  0.92251452    -0.37300
O1361       O  0.57663943  0.15121626  0.86401693    -0.38200
O1362       O  0.57811101  0.19036330  0.83976402    -0.34300
O1363       O  0.58000565  0.20761884  0.03066536    -0.35700
O1364       O  0.58045228  0.24704364  0.00700485    -0.40000
C1365       C  0.36468037  0.30475378  0.92948561    -0.13700
C1366       C  0.34680790  0.28708292  0.91377620     0.16700
C1367       C  0.35189410  0.25968367  0.91569403     0.02900
C1368       C  0.37333350  0.25033767  0.93569471    -0.12200
C1369       C  0.38994343  0.26796784  0.95353609    -0.03300
C1370       C  0.38624711  0.29536802  0.94923082     0.02200
C1371       C  0.32116729  0.29717460  0.90005380     0.09000
N1372       N  0.33411634  0.24108591  0.90015935     0.65400
H1373       H  0.37607002  0.22920993  0.93903901     0.18300
N1374       N  0.40350816  0.31379419  0.96610415     0.75900
H1375       H  0.36113289  0.32586690  0.92776257     0.09800
C1376       C  0.30300717  0.30969441  0.92322643     0.03500
C1377       C  0.27780606  0.31683312  0.91117457    -0.05200
C1378       C  0.26987704  0.31128527  0.87632346    -0.23600
C1379       C  0.28869358  0.30031606  0.85237730     0.12700
C1380       C  0.31408695  0.29316462  0.86451913    -0.12800
N1381       N  0.30908470  0.31327259  0.95992403     0.64400
H1382       H  0.26378912  0.32537294  0.92995383     0.12300
N1383       N  0.28192578  0.29497005  0.81633445     0.61100
H1384       H  0.32809579  0.28387378  0.84640544     0.08400
O1385       O  0.39529732  0.32676792  0.99259014    -0.40400
O1386       O  0.42511261  0.32018612  0.95116001    -0.39600
O1387       O  0.34094314  0.22896856  0.87229490    -0.39600
O1388       O  0.31350369  0.23399915  0.91693010    -0.37300
O1389       O  0.28380007  0.31308391  0.79337560    -0.38200
O1390       O  0.27787039  0.27149500  0.80655235    -0.34300
O1391       O  0.31093685  0.33629321  0.97248046    -0.35700
O1392       O  0.30946739  0.29358454  0.98055987    -0.40000
C1393       C  0.30791848  0.95478497  0.90495832    -0.13700
C1394       C  0.29533898  0.95550748  0.93829579     0.16700
C1395       C  0.29126060  0.93164748  0.95693492     0.02900
C1396       C  0.30008521  0.90771062  0.94228844    -0.12200
C1397       C  0.31237714  0.90669396  0.90860392    -0.03300
C1398       C  0.31639200  0.93073264  0.88997975     0.02200
C1399       C  0.28667349  0.98125877  0.95352971     0.09000
N1400       N  0.27688163  0.93124010  0.98988375     0.65400
H1401       H  0.29622655  0.88964200  0.95692288     0.18300
N1402       N  0.32904748  0.93118401  0.85591618     0.75900
H1403       H  0.31121208  0.97304170  0.89048763     0.09800
C1404       C  0.29793786  0.99114608  0.98495969     0.03500
C1405       C  0.28755275  0.01420573  0.00045402    -0.05200
C1406       C  0.26645592  0.02831064  0.98476031    -0.23600
C1407       C  0.25561159  0.01854813  0.95281924     0.12700
C1408       C  0.26581087  0.99527579  0.93756023    -0.12800
N1409       N  0.32056873  0.97853422  0.00066570     0.64400
H1410       H  0.29672076  0.02155709  0.02439947     0.12300
N1411       N  0.23352397  0.03131943  0.93627362     0.61100
H1412       H  0.25686322  0.98766424  0.91359664     0.08400
O1413       O  0.35379411  0.93507165  0.85364394    -0.40400
O1414       O  0.31506266  0.93196481  0.82825904    -0.39600
O1415       O  0.25273862  0.93820313  0.99067347    -0.39600
O1416       O  0.28684940  0.92006029  0.01667439    -0.37300
O1417       O  0.23660150  0.04263191  0.90665373    -0.38200
O1418       O  0.21039092  0.02829926  0.94887866    -0.34300
O1419       O  0.34168997  0.97557178  0.98274116    -0.35700
O1420       O  0.32072370  0.97364478  0.03352415    -0.40000
C1421       C  0.20289818  0.16093193  0.97417680    -0.13700
C1422       C  0.20417442  0.16067533  0.93702283     0.16700
C1423       C  0.21482865  0.13812356  0.91988167     0.02900
C1424       C  0.22475700  0.11692003  0.94004774    -0.12200
C1425       C  0.22412183  0.11748534  0.97734819    -0.03300
C1426       C  0.21231190  0.13968479  0.99432967     0.02200
C1427       C  0.19798178  0.18562085  0.91749656     0.09000
N1428       N  0.21591666  0.13656455  0.88201119     0.65400
H1429       H  0.23346523  0.10016202  0.92632370     0.18300
N1430       N  0.20995931  0.14132621  0.03210810     0.75900
H1431       H  0.19535495  0.17823438  0.98790827     0.09800
C1432       C  0.17479057  0.20064475  0.92492715     0.03500
C1433       C  0.17249234  0.22661378  0.91197664    -0.05200
C1434       C  0.19252234  0.23772670  0.89059171    -0.23600
C1435       C  0.21513921  0.22226783  0.88193066     0.12700
C1436       C  0.21772631  0.19665546  0.89557217    -0.12800
N1437       N  0.15340890  0.18973962  0.94549069     0.64400
H1438       H  0.15484283  0.23807094  0.91839888     0.12300
N1439       N  0.23676429  0.23302830  0.86178514     0.61100
H1440       H  0.23608760  0.18594736  0.89063605     0.08400
O1441       O  0.19079340  0.13010793  0.04779587    -0.40400
O1442       O  0.22469804  0.15691670  0.04909137    -0.39600
O1443       O  0.23800893  0.13349170  0.86637071    -0.39600
O1444       O  0.19464153  0.13487041  0.86460075    -0.37300
O1445       O  0.24043764  0.22574269  0.83012112    -0.38200
O1446       O  0.25452705  0.24616743  0.87726832    -0.34300
O1447       O  0.14460337  0.20194534  0.97231873    -0.35700
O1448       O  0.14129356  0.16957828  0.93447159    -0.40000
C1449       C  0.19287264  0.18619565  0.42985665    -0.13700
C1450       C  0.17662608  0.20378903  0.41096233     0.16700
C1451       C  0.18601794  0.21455841  0.37876957     0.02900
C1452       C  0.21183205  0.20863557  0.36678643    -0.12200
C1453       C  0.22882130  0.19246506  0.38689021    -0.03300
C1454       C  0.21885912  0.18055990  0.41818978     0.02200
C1455       C  0.15227344  0.21430162  0.42831762     0.09000
N1456       N  0.17008127  0.23278991  0.35912772     0.65400
H1457       H  0.21917512  0.21807766  0.34280569     0.18300
N1458       N  0.23499722  0.16299826  0.43862598     0.75900
H1459       H  0.18584773  0.17790749  0.45475597     0.09800
C1460       C  0.12818708  0.20011637  0.42953424     0.03500
C1461       C  0.10638199  0.21016964  0.44891598    -0.05200
C1462       C  0.10860517  0.23390053  0.46790764    -0.23600
C1463       C  0.13263594  0.24819493  0.46613703     0.12700
C1464       C  0.15407404  0.23846209  0.44619734    -0.12800
N1465       N  0.12593218  0.17514904  0.41223246     0.64400
H1466       H  0.08814850  0.19882968  0.45050226     0.12300
N1467       N  0.13562644  0.27254845  0.48483856     0.61100
H1468       H  0.17256244  0.24945131  0.44552138     0.08400
O1469       O  0.23309028  0.13838757  0.43393140    -0.40400
O1470       O  0.24703283  0.17157131  0.46549827    -0.39600
O1471       O  0.17423806  0.25729930  0.36171020    -0.39600
O1472       O  0.15434860  0.22432877  0.33585572    -0.37300
O1473       O  0.13008979  0.29408679  0.46958747    -0.38200
O1474       O  0.14776685  0.27283499  0.51402673    -0.34300
O1475       O  0.12921395  0.15411048  0.42974584    -0.35700
O1476       O  0.11667875  0.17404675  0.38124560    -0.40000
C1477       C  0.31119787  0.30671471  0.43157818    -0.13700
C1478       C  0.28842993  0.32027814  0.41979597     0.16700
C1479       C  0.27360537  0.30930729  0.39183440     0.02900
C1480       C  0.28094235  0.28472769  0.37752050    -0.12200
C1481       C  0.30266186  0.27028735  0.39096560    -0.03300
C1482       C  0.31832628  0.28194588  0.41766186     0.02200
C1483       C  0.27993190  0.34516202  0.43803950     0.09000
N1484       N  0.24989306  0.32188340  0.37946257     0.65400
H1485       H  0.26844924  0.27617403  0.35726409     0.18300
N1486       N  0.34150156  0.26893548  0.43100417     0.75900
H1487       H  0.32336487  0.31526989  0.45217779     0.09800
C1488       C  0.27674624  0.34582171  0.47517828     0.03500
C1489       C  0.26926789  0.36930823  0.49203300    -0.05200
C1490       C  0.26396903  0.39276823  0.47289099    -0.23600
C1491       C  0.26725392  0.39207116  0.43553407     0.12700
C1492       C  0.27538442  0.36850845  0.41862863    -0.12800
N1493       N  0.27999273  0.32244514  0.49620641     0.64400
H1494       H  0.26696828  0.36869061  0.52061611     0.12300
N1495       N  0.26251307  0.41488334  0.41416250     0.61100
H1496       H  0.27814323  0.36847831  0.39008845     0.08400
O1497       O  0.34234178  0.26187519  0.46311993    -0.40400
O1498       O  0.36233074  0.26781877  0.41213868    -0.39600
O1499       O  0.24887857  0.33049405  0.34804533    -0.39600
O1500       O  0.22887092  0.32077220  0.39793384    -0.37300
O1501       O  0.28202525  0.42647101  0.39979609    -0.38200
O1502       O  0.23938312  0.41907352  0.40256203    -0.34300
O1503       O  0.29757030  0.32161914  0.51993520    -0.35700
O1504       O  0.26327976  0.30395948  0.49402330    -0.40000
C1505       C  0.26146287  0.07763661  0.15197972    -0.13700
C1506       C  0.27443721  0.10152649  0.15896688     0.16700
C1507       C  0.28263074  0.11784543  0.13056364     0.02900
C1508       C  0.27633825  0.11079258  0.09580042    -0.12200
C1509       C  0.26292596  0.08714591  0.08873869    -0.03300
C1510       C  0.25574298  0.07029408  0.11701195     0.02200
C1511       C  0.27772270  0.11041012  0.19590996     0.09000
N1512       N  0.29777740  0.14132013  0.13670551     0.65400
H1513       H  0.28232543  0.12363335  0.07410958     0.18300
N1514       N  0.24096279  0.04670960  0.11076022     0.75900
H1515       H  0.25495690  0.06516133  0.17377447     0.09800
C1516       C  0.26248587  0.13161111  0.20917974     0.03500
C1517       C  0.26913060  0.14304764  0.24156682    -0.05200
C1518       C  0.29065665  0.13348072  0.26151844    -0.23600
C1519       C  0.30429920  0.11059466  0.24962278     0.12700
C1520       C  0.29785876  0.09941273  0.21678782    -0.12800
N1521       N  0.24053030  0.14203638  0.18962384     0.64400
H1522       H  0.25782813  0.16007667  0.25058511     0.12300
N1523       N  0.32546620  0.09914273  0.26957410     0.61100
H1524       H  0.30939724  0.08283289  0.20684100     0.08400
O1525       O  0.21619099  0.04805830  0.10575231    -0.40400
O1526       O  0.25201186  0.02443595  0.11431835    -0.39600
O1527       O  0.32084069  0.13950690  0.14955612    -0.39600
O1528       O  0.28986991  0.16324388  0.12460192    -0.37300
O1529       O  0.32109336  0.07850675  0.28752044    -0.38200
O1530       O  0.34915128  0.10597603  0.26322169    -0.34300
O1531       O  0.21860093  0.12994943  0.19009434    -0.35700
O1532       O  0.24156986  0.16526043  0.17739308    -0.40000
C1533       C  0.38734276  0.20511348  0.20029782    -0.13700
C1534       C  0.37737181  0.22768859  0.18343279     0.16700
C1535       C  0.35759048  0.24284625  0.20057680     0.02900
C1536       C  0.34795377  0.23507980  0.23414083    -0.12200
C1537       C  0.35762931  0.21214240  0.25113474    -0.03300
C1538       C  0.37763192  0.19710336  0.23354149     0.02200
C1539       C  0.38644812  0.23366746  0.14671414     0.09000
N1540       N  0.34697232  0.26600752  0.18397102     0.65400
H1541       H  0.33242722  0.24681993  0.24657956     0.18300
N1542       N  0.38739887  0.17283049  0.24795819     0.75900
H1543       H  0.40219297  0.19304519  0.18693692     0.09800
C1544       C  0.41284831  0.24140711  0.13969958     0.03500
C1545       C  0.42194588  0.24377669  0.10457408    -0.05200
C1546       C  0.40486893  0.23911008  0.07594144    -0.23600
C1547       C  0.37820422  0.23176062  0.08303808     0.12700
C1548       C  0.36925933  0.22911244  0.11823479    -0.12800
N1549       N  0.43033568  0.24774027  0.16812859     0.64400
H1550       H  0.44228232  0.24994442  0.09967902     0.12300
N1551       N  0.36045268  0.22536934  0.05486125     0.61100
H1552       H  0.34905512  0.22261666  0.12337315     0.08400
O1553       O  0.40838157  0.17283104  0.26611893    -0.40400
O1554       O  0.37830863  0.15121447  0.23671161    -0.39600
O1555       O  0.36202216  0.28517648  0.17642098    -0.39600
O1556       O  0.32273194  0.26691755  0.17553107    -0.37300
O1557       O  0.34123052  0.24056755  0.04781128    -0.38200
O1558       O  0.36207556  0.20309487  0.03995850    -0.34300
O1559       O  0.44977775  0.23280021  0.17504899    -0.35700
O1560       O  0.42798099  0.26963938  0.18384584    -0.40000
C1561       C  0.44452745  0.18999809  0.41651386    -0.13700
C1562       C  0.44416780  0.20895257  0.44360134     0.16700
C1563       C  0.41967463  0.21996223  0.45450479     0.02900
C1564       C  0.39599996  0.21156214  0.43876182    -0.12200
C1565       C  0.39623908  0.19278630  0.41130848    -0.03300
C1566       C  0.42088455  0.18200809  0.40015170     0.02200
C1567       C  0.46957929  0.21746245  0.45966175     0.09000
N1568       N  0.41857980  0.23982261  0.48138357     0.65400
H1569       H  0.37734819  0.22017551  0.44762729     0.18300
N1570       N  0.42219742  0.16241889  0.37296173     0.75900
H1571       H  0.46330519  0.18147796  0.40789916     0.09800
C1572       C  0.48281628  0.20163353  0.48473301     0.03500
C1573       C  0.50673580  0.21033881  0.49960973    -0.05200
C1574       C  0.51821520  0.23455724  0.48936324    -0.23600
C1575       C  0.50483955  0.25042192  0.46401797     0.12700
C1576       C  0.48074349  0.24166805  0.44949997    -0.12800
N1577       N  0.47227144  0.17654452  0.49504921     0.64400
H1578       H  0.51671070  0.19775435  0.51869421     0.12300
N1579       N  0.51475180  0.27584039  0.45366324     0.61100
H1580       H  0.47046067  0.25397948  0.43038594     0.08400
O1581       O  0.42057458  0.13826726  0.38112802    -0.40400
O1582       O  0.42924378  0.16892649  0.34195819    -0.39600
O1583       O  0.41815424  0.26390351  0.47255761    -0.39600
O1584       O  0.41315750  0.23337101  0.51297312    -0.37300
O1585       O  0.51928145  0.29309699  0.47697803    -0.38200
O1586       O  0.51447340  0.28256734  0.42138267    -0.34300
O1587       O  0.47897417  0.15603563  0.47815371    -0.35700
O1588       O  0.45913513  0.17440469  0.52356907    -0.40000
C1589       C  0.32081252  0.05832826  0.41828664    -0.13700
C1590       C  0.29919836  0.05568431  0.44175479     0.16700
C1591       C  0.28590552  0.07855077  0.45374928     0.02900
C1592       C  0.29381003  0.10349003  0.44139745    -0.12200
C1593       C  0.31485298  0.10630995  0.41681324    -0.03300
C1594       C  0.32895250  0.08330420  0.40609232     0.02200
C1595       C  0.29141196  0.02903953  0.45472684     0.09000
N1596       N  0.26358897  0.07662995  0.47736796     0.65400
H1597       H  0.28280483  0.12068348  0.45039490     0.18300
N1598       N  0.35186035  0.08487707  0.38345915     0.75900
H1599       H  0.33169617  0.04088780  0.40980295     0.09800
C1600       C  0.28100342  0.00993520  0.43164537     0.03500
C1601       C  0.27368281  0.98499307  0.44471447    -0.05200
C1602       C  0.27680239  0.97832682  0.48080044    -0.23600
C1603       C  0.28811117  0.99748467  0.50366986     0.12700
C1604       C  0.29487990  0.02257661  0.49054505    -0.12800
N1605       N  0.27704814  0.01590175  0.39498539     0.64400
H1606       H  0.26523033  0.97091713  0.42638216     0.12300
N1607       N  0.29372248  0.99172000  0.54000399     0.61100
H1608       H  0.30343619  0.03699288  0.50834579     0.08400
O1609       O  0.35113479  0.07520391  0.35266305    -0.40400
O1610       O  0.37389763  0.09185712  0.39619948    -0.39600
O1611       O  0.26470605  0.08671465  0.50791290    -0.39600
O1612       O  0.24182490  0.06750877  0.46633894    -0.37300
O1613       O  0.31469838  0.97924968  0.54775259    -0.38200
O1614       O  0.28054336  0.00305342  0.56424633    -0.34300
O1615       O  0.29279684  0.00665515  0.37188072    -0.35700
O1616       O  0.25632125  0.02804137  0.38542015    -0.40000
loop_ 
_geom_bond_atom_site_label_1 
_geom_bond_atom_site_label_2 
_geom_bond_distance 
_geom_bond_site_symmetry_2 
_ccdc_geom_bond_type 
O1           C16   1.263       .  A
O1           Al9   1.908       .  S
C2           O12   1.260       .  A
C2            O3   1.262       .  A
C2         C1593   1.494       .  S
O3           Al5   1.921       .  S
O4            C6   1.262       .  A
O4           Al5   1.902       .  S
Al5          O13   1.901       .  S
Al5          O15   1.915       .  S
Al5          O14   1.795       .  S
C6           O19   1.263       .  A
C6         C1518   1.482       .  S
O7           C17   1.260       .  A
O7           Al9   1.899       .  S
O8           C21   1.261       .  A
O8          Al18   1.904       .  S
Al9          O22   1.915       .  S
Al9          O19   1.901       .  S
Al9          O14   1.789       .  S
O10          C17   1.262       .  A
O10         Al18   1.914       .  S
O11          C20   1.264       .  A
O11         Al18   1.916       .  S
O12         Al18   1.895       .  S
O13          C20   1.262       .  A
O14         Al18   1.787       .  S
O15          C16   1.262       .  A
C16        C1537   1.497       .  S
C17        C1453   1.482       .  S
C20        C1565   1.485       .  S
C21          O22   1.263       .  A
C21        C1481   1.491       .  S
C23        C1406   1.494   1_554  S
C23          N24   1.362       .  A
C23          N28   1.366   1_554  A
N24          C25   1.356       .  A
C25        C1509   1.470       .  S
C25          N26   1.351       .  A
N26          C27   1.354   1_554  A
C27        C1425   1.493       .  S
C27          N28   1.364       .  A
C29        C1341   1.488       .  S
C29          N30   1.362   1_556  A
C29          N34   1.361       .  A
N30          C31   1.361       .  A
C31        C1546   1.484       .  S
C31          N32   1.357       .  A
N32          C33   1.356   1_554  A
C33        C1369   1.467       .  S
C33          N34   1.355       .  A
O35          C50   1.265       .  A
O35         Al43   1.909       .  S
C36          O46   1.262       .  A
C36          O37   1.265       .  A
C36        C1313   1.493       .  S
O37         Al39   1.923       .  S
O38          C40   1.262       .  A
O38         Al39   1.909       .  S
Al39         O47   1.907       .  S
Al39         O49   1.905       .  S
Al39         O48   1.788       .  S
C40          O53   1.262       .  A
C40        C1285   1.491       .  S
O41          C51   1.263       .  A
O41         Al43   1.918       .  S
O42          C55   1.263       .  A
O42         Al52   1.908       .  S
Al43         O56   1.922       .  S
Al43         O53   1.905       .  S
Al43         O48   1.783       .  S
O44          C51   1.261       .  A
O44         Al52   1.911       .  S
O45          C54   1.262       .  A
O45         Al52   1.913       .  S
O46         Al52   1.895       .  S
O47          C54   1.260       .  A
O48         Al52   1.784       .  S
O49          C50   1.262       .  A
C50        C1266   1.487       .  S
C51        C1238   1.483       .  S
C54        C1397   1.494       .  S
C55          O56   1.265       .  A
C55        C1201   1.492       .  S
C57        C1154   1.485       .  S
C57          N58   1.362       .  A
C57          N62   1.365       .  A
N58          C59   1.355       .  A
C59        C1294   1.470       .  S
C59          N60   1.353       .  A
N60          C61   1.357       .  A
C61        C1182   1.489       .  S
C61          N62   1.364       .  A
C63        C1602   1.499       .  S
C63          N64   1.362       .  A
C63          N68   1.364       .  A
N64          C65   1.361       .  A
C65        C1257   1.495       .  S
C65          N66   1.354       .  A
N66          C67   1.354       .  A
C67        C1117   1.474       .  S
C67          N68   1.359       .  A
O69          C84   1.263       .  A
O69         Al77   1.920       .  S
C70          O80   1.262       .  A
C70          O71   1.258       .  A
C70        C1089   1.483       .  S
O71         Al73   1.893       .  S
O72          C74   1.265       .  A
O72         Al73   1.919       .  S
Al73         O81   1.924       .  S
Al73         O83   1.893       .  S
Al73         O82   1.791       .  S
C74          O87   1.258       .  A
C74        C1033   1.472       .  S
O75          C85   1.264       .  A
O75         Al77   1.927       .  S
O76          C89   1.263       .  A
O76         Al86   1.913       .  S
Al77         O90   1.894       .  S
Al77         O87   1.882       .  S
Al77         O82   1.792       .  S
O78          C85   1.261       .  A
O78         Al86   1.894       .  S
O79          C88   1.259       .  A
O79         Al86   1.887       .  S
O80         Al86   1.917       .  S
O81          C88   1.265       .  A
O82         Al86   1.789       .  S
O83          C84   1.258       .  A
C84        C1070   1.488       .  S
C85         C977   1.483       .  S
C88        C1145   1.483       .  S
C89          O90   1.260       .  A
C89        C1014   1.479       .  S
C91         C921   1.473   1_554  S
C91          N92   1.358       .  A
C91          N96   1.363   1_554  A
N92          C93   1.356       .  A
C93        C1042   1.476       .  S
C93          N94   1.354       .  A
N94          C95   1.359   1_554  A
C95         C958   1.495       .  S
C95          N96   1.361       .  A
C97        C1322   1.493   1_554  S
C97          N98   1.365   1_554  A
C97         N102   1.365       .  A
N98          C99   1.359       .  A
C99         C893   1.477       .  S
C99         N100   1.353   1_556  A
N100        C101   1.354       .  A
C101       C1061   1.486       .  S
C101        N102   1.361       .  A
O103        C118   1.264       .  A
O103       Al111   1.904       .  S
C104        O114   1.259       .  A
C104        O105   1.260       .  A
C104       C1350   1.489       .  S
O105       Al107   1.911       .  S
O106        C108   1.261       .  A
O106       Al107   1.908       .  S
Al107       O115   1.880       .  S
Al107       O117   1.912       .  S
Al107       O116   1.790       .  S
C108        O121   1.263       .  A
C108        C865   1.487       .  S
O109        C119   1.266       .  A
O109       Al111   1.906       .  S
O110        C123   1.260       .  A
O110       Al120   1.909       .  S
Al111       O124   1.909       .  S
Al111       O121   1.921       .  S
Al111       O116   1.789       .  S
O112        C119   1.266       .  A
O112       Al120   1.913       .  S
O113        C122   1.264       .  A
O113       Al120   1.922       .  S
O114       Al120   1.896       .  S
O115        C122   1.259       .  A
O116       Al120   1.790       .  S
O117        C118   1.263       .  A
C118        C837   1.487       .  S
C119        C809   1.481       .  S
C122        C930   1.485       .  S
C123        O124   1.260       .  A
C123        C781   1.495       .  S
C125       C1574   1.490       .  S
C125        N126   1.365       .  A
C125        N130   1.368       .  A
N126        C127   1.359       .  A
C127        C874   1.485       .  S
C127        N128   1.353       .  A
N128        C129   1.356       .  A
C129        C762   1.499       .  S
C129        N130   1.364       .  A
C131       C1098   1.497       .  S
C131        N132   1.364       .  A
C131        N136   1.364       .  A
N132        C133   1.358       .  A
C133        C725   1.479       .  S
C133        N134   1.354       .  A
N134        C135   1.355       .  A
C135        C846   1.485       .  S
C135        N136   1.360       .  A
O137        C152   1.262       .  A
O137       Al145   1.894       .  S
C138        O148   1.261       .  A
C138        O139   1.265       .  A
C138        C697   1.486       .  S
O139       Al141   1.921       .  S
O140        C142   1.259       .  A
O140       Al141   1.897       .  S
Al141       O149   1.890       .  S
Al141       O151   1.912       .  S
Al141       O150   1.789       .  S
C142        O155   1.263       .  A
C142        C622   1.488       .  S
O143        C153   1.263       .  A
O143       Al145   1.912       .  S
O144        C157   1.264       .  A
O144       Al154   1.904       .  S
Al145       O158   1.926       .  S
Al145       O155   1.921       .  S
Al145       O150   1.783       .  S
O146        C153   1.261       .  A
O146       Al154   1.902       .  S
O147        C156   1.260       .  A
O147       Al154   1.915       .  S
O148       Al154   1.894       .  S
O149        C156   1.258       .  A
O150       Al154   1.783       .  S
O151        C152   1.262       .  A
C152        C641   1.487       .  S
C153        C734   1.485       .  S
C156        C678   1.492       .  S
C157        O158   1.266       .  A
C157        C753   1.495       .  S
C159        C594   1.502   1_554  S
C159        N160   1.366       .  A
C159        N164   1.371   1_554  A
N160        C161   1.358       .  A
C161        C613   1.493       .  S
C161        N162   1.353       .  A
N162        C163   1.356       .  A
C163        C790   1.498   1_554  S
C163        N164   1.367   1_554  A
C165        C566   1.497   1_554  S
C165        N166   1.367   1_554  A
C165        N170   1.361       .  A
N166        C167   1.362       .  A
C167        C818   1.485       .  S
C167        N168   1.355   1_556  A
N168        C169   1.353       .  A
C169        C650   1.484       .  S
C169        N170   1.356       .  A
O171        C186   1.262       .  A
O171       Al179   1.901       .  S
C172        O182   1.260       .  A
C172        O173   1.264       .  A
C172        C538   1.496       .  S
O173       Al175   1.930       .  S
O174        C176   1.263       .  A
O174       Al175   1.911       .  S
Al175       O183   1.902       .  S
Al175       O185   1.910       .  S
Al175       O184   1.788       .  S
C176        O189   1.261       .  A
C176        C501   1.487       .  S
O177        C187   1.262       .  A
O177       Al179   1.902       .  S
O178        C191   1.261       .  A
O178       Al188   1.907       .  S
Al179       O192   1.909       .  S
Al179       O189   1.904       .  S
Al179       O184   1.787       .  S
O180        C187   1.264       .  A
O180       Al188   1.906       .  S
O181        C190   1.264       .  A
O181       Al188   1.921       .  S
O182       Al188   1.894       .  S
O183        C190   1.260       .  A
O184       Al188   1.781       .  S
O185        C186   1.264       .  A
C186        C482   1.480       .  S
C187       C1378   1.482       .  S
C190        C585   1.498       .  S
C191        O192   1.260       .  A
C191       C1434   1.482       .  S
C193        C445   1.501       .  S
C193        N194   1.373       .  A
C193        N198   1.364       .  A
N194        C195   1.369       .  A
C195       C1490   1.505       .  S
C195        N196   1.356       .  A
N196        C197   1.350       .  A
C197        C510   1.483       .  S
C197        N198   1.354       .  A
C199        C706   1.497       .  S
C199        N200   1.367       .  A
C199        N204   1.365       .  A
N200        C201   1.364       .  A
C201        C473   1.497       .  S
C201        N202   1.356       .  A
N202        C203   1.351       .  A
C203       C1462   1.476       .  S
C203        N204   1.357       .  A
O205        C220   1.263       .  A
O205       Al213   1.896       .  S
C206        O216   1.260       .  A
C206        O207   1.264       .  A
C206        C426   1.497       .  S
O207       Al209   1.932       .  S
O208        C210   1.260       .  A
O208       Al209   1.900       .  S
Al209       O217   1.901       .  S
Al209       O219   1.926       .  S
Al209       O218   1.790       .  S
C210        O223   1.262       .  A
C210        C361   1.469       .  S
O211        C221   1.262       .  A
O211       Al213   1.909       .  S
O212        C225   1.262       .  A
O212       Al222   1.900       .  S
Al213       O226   1.926       .  S
Al213       O223   1.914       .  S
Al213       O218   1.790       .  S
O214        C221   1.262       .  A
O214       Al222   1.902       .  S
O215        C224   1.263       .  A
O215       Al222   1.917       .  S
O216       Al222   1.892       .  S
O217        C224   1.261       .  A
O218       Al222   1.782       .  S
O219        C220   1.265       .  A
C220        C389   1.483       .  S
C221       C1126   1.485       .  S
C224        C454   1.488       .  S
C225        O226   1.264       .  A
C225       C1173   1.496       .  S
C227        C333   1.479   1_554  S
C227        N228   1.360       .  A
C227        N232   1.365   1_554  A
N228        C229   1.356       .  A
C229        C370   1.482       .  S
C229        N230   1.355       .  A
N230        C231   1.359   1_554  A
C231       C1210   1.501       .  S
C231        N232   1.365       .  A
C233        C529   1.494       .  S
C233        N234   1.366       .  A
C233        N238   1.362   1_556  A
N234        C235   1.365       .  A
C235       C1229   1.496       .  S
C235        N236   1.360   1_556  A
N236        C237   1.356       .  A
C237        C398   1.480       .  S
C237        N238   1.357       .  A
O239        C254   1.262       .  A
O239       Al247   1.923       .  S
C240        O250   1.265       .  A
C240        O241   1.258       .  A
C240        C557   1.490       .  S
O241       Al243   1.883       .  S
O242        C244   1.263       .  A
O242       Al243   1.903       .  S
Al243       O251   1.914       .  S
Al243       O253   1.888       .  S
Al243       O252   1.789       .  S
C244        O257   1.263       .  A
C244        C305   1.488       .  S
O245        C255   1.260       .  A
O245       Al247   1.916       .  S
O246        C259   1.265       .  A
O246       Al256   1.907       .  S
Al247       O260   1.899       .  S
Al247       O257   1.908       .  S
Al247       O252   1.798       .  S
O248        C255   1.256       .  A
O248       Al256   1.890       .  S
O249        C258   1.254       .  A
O249       Al256   1.890       .  S
O250       Al256   1.922       .  S
O251        C258   1.259       .  A
O252       Al256   1.791       .  S
O253        C254   1.260       .  A
C254        C277   1.486       .  S
C255        C902   1.485       .  S
C258        C342   1.480       .  S
C259        O260   1.262       .  A
C259        C949   1.473       .  S
C261        C669   1.491       .  S
C261        N262   1.363       .  A
C261        N266   1.362       .  A
N262        C263   1.358       .  A
C263       C1005   1.471       .  S
C263        N264   1.354       .  A
N264        C265   1.354       .  A
C265        C314   1.486       .  S
C265        N266   1.359       .  A
C267        C417   1.501       .  S
C267        N268   1.364       .  A
C267        N272   1.363       .  A
N268        C269   1.360       .  A
C269        C986   1.482       .  S
C269        N270   1.357       .  A
N270        C271   1.358       .  A
C271        C286   1.488       .  S
C271        N272   1.361       .  A
C273        C274   1.402       .  A
C273        C278   1.397       .  A
C273        H283   1.091       .  S
C274        C279   1.482       .  S
C274        C275   1.409       .  A
C275        C276   1.396       .  A
C275        N280   1.431       .  S
C276        C277   1.402       .  A
C276        H281   1.103       .  S
C277        C278   1.415       .  A
C278        N282   1.429       .  S
C279        C284   1.412       .  A
C279        C288   1.399       .  A
N280        O295   1.261       .  A
N280        O296   1.263       .  A
N282        O293   1.262       .  A
N282        O294   1.262       .  A
C284        C285   1.406       .  A
C284        N289   1.432       .  S
C285        C286   1.408       .  A
C285        H290   1.083       .  S
C286        C287   1.415       .  A
C287        C288   1.399       .  A
C287        N291   1.432       .  S
C288        H292   1.084       .  S
N289        O299   1.262       .  A
N289        O300   1.262       .  A
N291        O297   1.263       .  A
N291        O298   1.262       .  A
C301        C302   1.402       .  A
C301        C306   1.402       .  A
C301        H311   1.084       .  S
C302        C307   1.478       .  S
C302        C303   1.407       .  A
C303        C304   1.398       .  A
C303        N308   1.432       .  S
C304        C305   1.409       .  A
C304        H309   1.084       .  S
C305        C306   1.415       .  A
C306        N310   1.429       .  S
C307        C312   1.408       .  A
C307        C316   1.399       .  A
N308        O323   1.262       .  A
N308        O324   1.262       .  A
N310        O321   1.262       .  A
N310        O322   1.262       .  A
C312        C313   1.403       .  A
C312        N317   1.430       .  S
C313        C314   1.407       .  A
C313        H318   1.083       .  S
C314        C315   1.416       .  A
C315        C316   1.397       .  A
C315        N319   1.430       .  S
C316        H320   1.084       .  S
N317        O327   1.262       .  A
N317        O328   1.262       .  A
N319        O325   1.262       .  A
N319        O326   1.262       .  A
C329        C330   1.406       .  A
C329        C334   1.402       .  A
C329        H339   1.083       .  S
C330        C335   1.497       .  S
C330        C331   1.417       .  A
C331        C332   1.406   1_655  A
C331        N336   1.432       .  S
C332        C333   1.401       .  A
C332        H337   1.084       .  S
C333        C334   1.409   1_455  A
C334        N338   1.429   1_556  S
C335        C340   1.417       .  A
C335        C344   1.404       .  A
N336        O351   1.262   1_655  A
N336        O352   1.262       .  A
N338        O349   1.262       .  A
N338        O350   1.262       .  A
C340        C341   1.406       .  A
C340        N345   1.430   1_556  S
C341        C342   1.402       .  A
C341        H346   1.084       .  S
C342        C343   1.408       .  A
C343        C344   1.400       .  A
C343        N347   1.426       .  S
C344        H348   1.083       .  S
N345        O355   1.262       .  A
N345        O356   1.262       .  A
N347        O353   1.262       .  A
N347        O354   1.262       .  A
C357        C358   1.406       .  A
C357        C362   1.406       .  A
C357        H367   1.084       .  S
C358        C363   1.478       .  S
C358        C359   1.408       .  A
C359        C360   1.397       .  A
C359        N364   1.430       .  S
C360        C361   1.401       .  A
C360        H365   1.084       .  S
C361        C362   1.407       .  A
C362        N366   1.430       .  S
C363        C368   1.408       .  A
C363        C372   1.399       .  A
N364        O379   1.262       .  A
N364        O380   1.262       .  A
N366        O377   1.262       .  A
N366        O378   1.262       .  A
C368        C369   1.404       .  A
C368        N373   1.429       .  S
C369        C370   1.406       .  A
C369        H374   1.084       .  S
C370        C371   1.413       .  A
C371        C372   1.400       .  A
C371        N375   1.431       .  S
C372        H376   1.084       .  S
N373        O383   1.262       .  A
N373        O384   1.262       .  A
N375        O381   1.262       .  A
N375        O382   1.262       .  A
C385        C386   1.403       .  A
C385        C390   1.399       .  A
C385        H395   1.084       .  S
C386        C391   1.491       .  S
C386        C387   1.415       .  A
C387        C388   1.407       .  A
C387        N392   1.433       .  S
C388        C389   1.405       .  A
C388        H393   1.084       .  S
C389        C390   1.412       .  A
C390        N394   1.429       .  S
C391        C396   1.416       .  A
C391        C400   1.404       .  A
N392        O407   1.262       .  A
N392        O408   1.262       .  A
N394        O405   1.262       .  A
N394        O406   1.262       .  A
C396        C397   1.407       .  A
C396        N401   1.434       .  S
C397        C398   1.403       .  A
C397        H402   1.084       .  S
C398        C399   1.408       .  A
C399        C400   1.401       .  A
C399        N403   1.429       .  S
C400        H404   1.084       .  S
N401        O411   1.262       .  A
N401        O412   1.262       .  A
N403        O409   1.262       .  A
N403        O410   1.262       .  A
C413        C414   1.403       .  A
C413        C418   1.403   1_455  A
C413        H423   1.084       .  S
C414        C419   1.493       .  S
C414        C415   1.409       .  A
C415        C416   1.404   1_455  A
C415        N420   1.429       .  S
C416        C417   1.411       .  A
C416        H421   1.083       .  S
C417        C418   1.419       .  A
C418        N422   1.429       .  S
C419        C424   1.409       .  A
C419        C428   1.405       .  A
N420        O435   1.262   1_455  A
N420        O436   1.262       .  A
N422        O433   1.262   1_655  A
N422        O434   1.262       .  A
C424        C425   1.401       .  A
C424        N429   1.430       .  S
C425        C426   1.408       .  A
C425        H430   1.083       .  S
C426        C427   1.418       .  A
C427        C428   1.407       .  A
C427        N431   1.429       .  S
C428        H432   1.084       .  S
N429        O439   1.262       .  A
N429        O440   1.262       .  A
N431        O437   1.262       .  A
N431        O438   1.262       .  A
C441        C442   1.401       .  A
C441        C446   1.407       .  A
C441        H451   1.084       .  S
C442        C447   1.486       .  S
C442        C443   1.406       .  A
C443        C444   1.402       .  A
C443        N448   1.431       .  S
C444        C445   1.412       .  A
C444        H449   1.083       .  S
C445        C446   1.418       .  A
C446        N450   1.430       .  S
C447        C452   1.411       .  A
C447        C456   1.402       .  A
N448        O463   1.262       .  A
N448        O464   1.262       .  A
N450        O461   1.262       .  A
N450        O462   1.262       .  A
C452        C453   1.404       .  A
C452        N457   1.431       .  S
C453        C454   1.407       .  A
C453        H458   1.084       .  S
C454        C455   1.412       .  A
C455        C456   1.403       .  A
C455        N459   1.428       .  S
C456        H460   1.084       .  S
N457        O467   1.262       .  A
N457        O468   1.262       .  A
N459        O465   1.262       .  A
N459        O466   1.262       .  A
C469        C470   1.399       .  A
C469        C474   1.402       .  A
C469        H479   1.084       .  S
C470        C475   1.476       .  S
C470        C471   1.402       .  A
C471        C472   1.398       .  A
C471        N476   1.430       .  S
C472        C473   1.413       .  A
C472        H477   1.083       .  S
C473        C474   1.417       .  A
C474        N478   1.425       .  S
C475        C480   1.405       .  A
C475        C484   1.403       .  A
N476        O491   1.262       .  A
N476        O492   1.262       .  A
N478        O489   1.262       .  A
N478        O490   1.262       .  A
C480        C481   1.395       .  A
C480        N485   1.430       .  S
C481        C482   1.406       .  A
C481        H486   1.084       .  S
C482        C483   1.413       .  A
C483        C484   1.403       .  A
C483        N487   1.430       .  S
C484        H488   1.084       .  S
N485        O495   1.262       .  A
N485        O496   1.262       .  A
N487        O493   1.262       .  A
N487        O494   1.262       .  A
C497        C498   1.402       .  A
C497        C502   1.395       .  A
C497        H507   1.084       .  S
C498        C503   1.488       .  S
C498        C499   1.411       .  A
C499        C500   1.407       .  A
C499        N504   1.429       .  S
C500        C501   1.407       .  A
C500        H505   1.084       .  S
C501        C502   1.416       .  A
C502        N506   1.430       .  S
C503        C508   1.410       .  A
C503        C512   1.406       .  A
N504        O519   1.262       .  A
N504        O520   1.262       .  A
N506        O517   1.262       .  A
N506        O518   1.262       .  A
C508        C509   1.397       .  A
C508        N513   1.431       .  S
C509        C510   1.403       .  A
C509        H514   1.084       .  S
C510        C511   1.413       .  A
C511        C512   1.406       .  A
C511        N515   1.430       .  S
C512        H516   1.083       .  S
N513        O523   1.262       .  A
N513        O524   1.262       .  A
N515        O521   1.262       .  A
N515        O522   1.262       .  A
C525        C526   1.404       .  A
C525        C530   1.402   1_556  A
C525        H535   1.084   1_556  S
C526        C531   1.498       .  S
C526        C527   1.414       .  A
C527        C528   1.407       .  A
C527        N532   1.429       .  S
C528        C529   1.407       .  A
C528        H533   1.083       .  S
C529        C530   1.415   1_556  A
C530        N534   1.429       .  S
C531        C536   1.413       .  A
C531        C540   1.406       .  A
N532        O547   1.262       .  A
N532        O548   1.262       .  A
N534        O545   1.262       .  A
N534        O546   1.262       .  A
C536        C537   1.403       .  A
C536        N541   1.431       .  S
C537        C538   1.407       .  A
C537        H542   1.084       .  S
C538        C539   1.416       .  A
C539        C540   1.407       .  A
C539        N543   1.429       .  S
C540        H544   1.083       .  S
N541        O551   1.262       .  A
N541        O552   1.262       .  A
N543        O549   1.262       .  A
N543        O550   1.262       .  A
C553        C554   1.402       .  A
C553        C558   1.401       .  A
C553        H563   1.084       .  S
C554        C559   1.488       .  S
C554        C555   1.410       .  A
C555        C556   1.403       .  A
C555        N560   1.430       .  S
C556        C557   1.407       .  A
C556        H561   1.084       .  S
C557        C558   1.417       .  A
C558        N562   1.430       .  S
C559        C564   1.410       .  A
C559        C568   1.401       .  A
N560        O575   1.262   1_556  A
N560        O576   1.262       .  A
N562        O573   1.262       .  A
N562        O574   1.262       .  A
C564        C565   1.403       .  A
C564        N569   1.430       .  S
C565        C566   1.408       .  A
C565        H570   1.083       .  S
C566        C567   1.421   1_556  A
C567        C568   1.402   1_554  A
C567        N571   1.430       .  S
C568        H572   1.084   1_556  S
N569        O579   1.262       .  A
N569        O580   1.262       .  A
N571        O577   1.262       .  A
N571        O578   1.262       .  A
C581        C582   1.403       .  A
C581        C586   1.403       .  A
C581        H591   1.084       .  S
C582        C587   1.494       .  S
C582        C583   1.414       .  A
C583        C584   1.406       .  A
C583        N588   1.434       .  S
C584        C585   1.409       .  A
C584        H589   1.083       .  S
C585        C586   1.416       .  A
C586        N590   1.428       .  S
C587        C592   1.412       .  A
C587        C596   1.403       .  A
N588        O603   1.262   1_556  A
N588        O604   1.262   1_556  A
N590        O601   1.262       .  A
N590        O602   1.262       .  A
C592        C593   1.406   1_456  A
C592        N597   1.433   1_556  S
C593        C594   1.411   1_554  A
C593        H598   1.083       .  S
C594        C595   1.416       .  A
C595        C596   1.405   1_655  A
C595        N599   1.427       .  S
C596        H600   1.084       .  S
N597        O607   1.262       .  A
N597        O608   1.262       .  A
N599        O605   1.262       .  A
N599        O606   1.261       .  A
C609        C610   1.399       .  A
C609        C614   1.394       .  A
C609        H619   1.085       .  S
C610        C615   1.488       .  S
C610        C611   1.413       .  A
C611        C612   1.411       .  A
C611        N616   1.432       .  S
C612        C613   1.409       .  A
C612        H617   1.083       .  S
C613        C614   1.417       .  A
C614        N618   1.429       .  S
C615        C620   1.411       .  A
C615        C624   1.402       .  A
N616        O631   1.262       .  A
N616        O632   1.262       .  A
N618        O629   1.262       .  A
N618        O630   1.262       .  A
C620        C621   1.407       .  A
C620        N625   1.431       .  S
C621        C622   1.409       .  A
C621        H626   1.084       .  S
C622        C623   1.413       .  A
C623        C624   1.399       .  A
C623        N627   1.429       .  S
C624        H628   1.084       .  S
N625        O635   1.262       .  A
N625        O636   1.262       .  A
N627        O633   1.262       .  A
N627        O634   1.261       .  A
C637        C638   1.402       .  A
C637        C642   1.402       .  A
C637        H647   1.084       .  S
C638        C643   1.483       .  S
C638        C639   1.408       .  A
C639        C640   1.398       .  A
C639        N644   1.430       .  S
C640        C641   1.406       .  A
C640        H645   1.084       .  S
C641        C642   1.417       .  A
C642        N646   1.429       .  S
C643        C648   1.409       .  A
C643        C652   1.401       .  A
N644        O659   1.262       .  A
N644        O660   1.262       .  A
N646        O657   1.262       .  A
N646        O658   1.262       .  A
C648        C649   1.404       .  A
C648        N653   1.430       .  S
C649        C650   1.407       .  A
C649        H654   1.083       .  S
C650        C651   1.415       .  A
C651        C652   1.397       .  A
C651        N655   1.431       .  S
C652        H656   1.084       .  S
N653        O663   1.262       .  A
N653        O664   1.262       .  A
N655        O661   1.262       .  A
N655        O662   1.262       .  A
C665        C666   1.401       .  A
C665        C670   1.399       .  A
C665        H675   1.084       .  S
C666        C671   1.487       .  S
C666        C667   1.413       .  A
C667        C668   1.404       .  A
C667        N672   1.434       .  S
C668        C669   1.408       .  A
C668        H673   1.083       .  S
C669        C670   1.417       .  A
C670        N674   1.429       .  S
C671        C676   1.411       .  A
C671        C680   1.401       .  A
N672        O687   1.262       .  A
N672        O688   1.262       .  A
N674        O685   1.262       .  A
N674        O686   1.262       .  A
C676        C677   1.403       .  A
C676        N681   1.435       .  S
C677        C678   1.409       .  A
C677        H682   1.083       .  S
C678        C679   1.419       .  A
C679        C680   1.401       .  A
C679        N683   1.433       .  S
C680        H684   1.084       .  S
N681        O691   1.262       .  A
N681        O692   1.262       .  A
N683        O689   1.262       .  A
N683        O690   1.262       .  A
C693        C694   1.402       .  A
C693        C698   1.402       .  A
C693        H703   1.084       .  S
C694        C699   1.484       .  S
C694        C695   1.409       .  A
C695        C696   1.401       .  A
C695        N700   1.430       .  S
C696        C697   1.407       .  A
C696        H701   1.084       .  S
C697        C698   1.414       .  A
C698        N702   1.429       .  S
C699        C704   1.405       .  A
C699        C708   1.399       .  A
N700        O715   1.262       .  A
N700        O716   1.262       .  A
N702        O713   1.262       .  A
N702        O714   1.262       .  A
C704        C705   1.401   1_655  A
C704        N709   1.429       .  S
C705        C706   1.411       .  A
C705        H710   1.083       .  S
C706        C707   1.421   1_455  A
C707        C708   1.405       .  A
C707        N711   1.432       .  S
C708        H712   1.084       .  S
N709        O719   1.262       .  A
N709        O720   1.262       .  A
N711        O717   1.263       .  A
N711        O718   1.262   1_655  A
C721        C722   1.400       .  A
C721        C726   1.398       .  A
C721        H731   1.084       .  S
C722        C727   1.476       .  S
C722        C723   1.407       .  A
C723        C724   1.403       .  A
C723        N728   1.429       .  S
C724        C725   1.405       .  A
C724        H729   1.084       .  S
C725        C726   1.413       .  A
C726        N730   1.432       .  S
C727        C732   1.404       .  A
C727        C736   1.401       .  A
N728        O743   1.262       .  A
N728        O744   1.262       .  A
N730        O741   1.262       .  A
N730        O742   1.262       .  A
C732        C733   1.395       .  A
C732        N737   1.430       .  S
C733        C734   1.408       .  A
C733        H738   1.084       .  S
C734        C735   1.415       .  A
C735        C736   1.407       .  A
C735        N739   1.430       .  S
C736        H740   1.084       .  S
N737        O747   1.262       .  A
N737        O748   1.262       .  A
N739        O745   1.263       .  A
N739        O746   1.262       .  A
C749        C750   1.403       .  A
C749        C754   1.402       .  A
C749        H759   1.084       .  S
C750        C755   1.490       .  S
C750        C751   1.408       .  A
C751        C752   1.403       .  A
C751        N756   1.429       .  S
C752        C753   1.410       .  A
C752        H757   1.083       .  S
C753        C754   1.416       .  A
C754        N758   1.431       .  S
C755        C760   1.408       .  A
C755        C764   1.405       .  A
N756        O771   1.262       .  A
N756        O772   1.262       .  A
N758        O769   1.262       .  A
N758        O770   1.262       .  A
C760        C761   1.395       .  A
C760        N765   1.431       .  S
C761        C762   1.409       .  A
C761        H766   1.083       .  S
C762        C763   1.417       .  A
C763        C764   1.410       .  A
C763        N767   1.427       .  S
C764        H768   1.083       .  S
N765        O775   1.262       .  A
N765        O776   1.262       .  A
N767        O773   1.262       .  A
N767        O774   1.262       .  A
C777        C778   1.404       .  A
C777        C782   1.406       .  A
C777        H787   1.084       .  S
C778        C783   1.486       .  S
C778        C779   1.405       .  A
C779        C780   1.402       .  A
C779        N784   1.429       .  S
C780        C781   1.410       .  A
C780        H785   1.083       .  S
C781        C782   1.416       .  A
C782        N786   1.430       .  S
C783        C788   1.403       .  A
C783        C792   1.405       .  A
N784        O799   1.262       .  A
N784        O800   1.262       .  A
N786        O797   1.262       .  A
N786        O798   1.262       .  A
C788        C789   1.395       .  A
C788        N793   1.429       .  S
C789        C790   1.408       .  A
C789        H794   1.080   1_556  S
C790        C791   1.418       .  A
C791        C792   1.413       .  A
C791        N795   1.430       .  S
C792        H796   1.084       .  S
N793        O803   1.262   1_556  A
N793        O804   1.261       .  A
N795        O801   1.262       .  A
N795        O802   1.262       .  A
C805        C806   1.401       .  A
C805        C810   1.404       .  A
C805        H815   1.084       .  S
C806        C811   1.482       .  S
C806        C807   1.408       .  A
C807        C808   1.401       .  A
C807        N812   1.429       .  S
C808        C809   1.404       .  A
C808        H813   1.084       .  S
C809        C810   1.413       .  A
C810        N814   1.428       .  S
C811        C816   1.406       .  A
C811        C820   1.404       .  A
N812        O827   1.262       .  A
N812        O828   1.262       .  A
N814        O825   1.262       .  A
N814        O826   1.262       .  A
C816        C817   1.396       .  A
C816        N821   1.430       .  S
C817        C818   1.405       .  A
C817        H822   1.083       .  S
C818        C819   1.414       .  A
C819        C820   1.409       .  A
C819        N823   1.428       .  S
C820        H824   1.083       .  S
N821        O831   1.262       .  A
N821        O832   1.262       .  A
N823        O829   1.262       .  A
N823        O830   1.262       .  A
C833        C834   1.402       .  A
C833        C838   1.401       .  A
C833        H843   1.084       .  S
C834        C839   1.487       .  S
C834        C835   1.411       .  A
C835        C836   1.400       .  A
C835        N840   1.430       .  S
C836        C837   1.405       .  A
C836        H841   1.084       .  S
C837        C838   1.417       .  A
C838        N842   1.430       .  S
C839        C844   1.412       .  A
C839        C848   1.402       .  A
N840        O855   1.262       .  A
N840        O856   1.262       .  A
N842        O853   1.262       .  A
N842        O854   1.262       .  A
C844        C845   1.406       .  A
C844        N849   1.429       .  S
C845        C846   1.406       .  A
C845        H850   1.083       .  S
C846        C847   1.415       .  A
C847        C848   1.397       .  A
C847        N851   1.432       .  S
C848        H852   1.084       .  S
N849        O859   1.262       .  A
N849        O860   1.262       .  A
N851        O857   1.262       .  A
N851        O858   1.262       .  A
C861        C862   1.400       .  A
C861        C866   1.400       .  A
C861        H871   1.084       .  S
C862        C867   1.484       .  S
C862        C863   1.408       .  A
C863        C864   1.407       .  A
C863        N868   1.428       .  S
C864        C865   1.406       .  A
C864        H869   1.082       .  S
C865        C866   1.415       .  A
C866        N870   1.430       .  S
C867        C872   1.405       .  A
C867        C876   1.405       .  A
N868        O883   1.262       .  A
N868        O884   1.262       .  A
N870        O881   1.262       .  A
N870        O882   1.262       .  A
C872        C873   1.398       .  A
C872        N877   1.429       .  S
C873        C874   1.405       .  A
C873        H878   1.084       .  S
C874        C875   1.413       .  A
C875        C876   1.409       .  A
C875        N879   1.429       .  S
C876        H880   1.084       .  S
N877        O887   1.262       .  A
N877        O888   1.262       .  A
N879        O885   1.262       .  A
N879        O886   1.262       .  A
C889        C890   1.409       .  A
C889        C894   1.405       .  A
C889        H899   1.083       .  S
C890        C895   1.495       .  S
C890        C891   1.413       .  A
C891        C892   1.400       .  A
C891        N896   1.432       .  S
C892        C893   1.402       .  A
C892        H897   1.084   1_556  S
C893        C894   1.408       .  A
C894        N898   1.429       .  S
C895        C900   1.413       .  A
C895        C904   1.405       .  A
N896        O911   1.262   1_556  A
N896        O912   1.262       .  A
N898        O909   1.262       .  A
N898        O910   1.262       .  A
C900        C901   1.406       .  A
C900        N905   1.431       .  S
C901        C902   1.405       .  A
C901        H906   1.084       .  S
C902        C903   1.413       .  A
C903        C904   1.399       .  A
C903        N907   1.430       .  S
C904        H908   1.083       .  S
N905        O915   1.262       .  A
N905        O916   1.262       .  A
N907        O913   1.262       .  A
N907        O914   1.262       .  A
C917        C918   1.407       .  A
C917        C922   1.401   1_545  A
C917        H927   1.083       .  S
C918        C923   1.491       .  S
C918        C919   1.413       .  A
C919        C920   1.400   1_556  A
C919        N924   1.431       .  S
C920        C921   1.401   1_544  A
C920        H925   1.084       .  S
C921        C922   1.408       .  A
C922        N926   1.431       .  S
C923        C928   1.411       .  A
C923        C932   1.407       .  A
N924        O939   1.262   1_556  A
N924        O940   1.262       .  A
N926        O937   1.262       .  A
N926        O938   1.262       .  A
C928        C929   1.398       .  A
C928        N933   1.431       .  S
C929        C930   1.406       .  A
C929        H934   1.083       .  S
C930        C931   1.413       .  A
C931        C932   1.403       .  A
C931        N935   1.429       .  S
C932        H936   1.083       .  S
N933        O943   1.262       .  A
N933        O944   1.262       .  A
N935        O941   1.262       .  A
N935        O942   1.262       .  A
C945        C946   1.405       .  A
C945        C950   1.397       .  A
C945        H955   1.084       .  S
C946        C951   1.488       .  S
C946        C947   1.412       .  A
C947        C948   1.404       .  A
C947        N952   1.429       .  S
C948        C949   1.403       .  A
C948        H953   1.084       .  S
C949        C950   1.407       .  A
C950        N954   1.431       .  S
C951        C956   1.410       .  A
C951        C960   1.405       .  A
N952        O967   1.262       .  A
N952        O968   1.262       .  A
N954        O965   1.262       .  A
N954        O966   1.262       .  A
C956        C957   1.394       .  A
C956        N961   1.432       .  S
C957        C958   1.408       .  A
C957        H962   1.083   1_556  S
C958        C959   1.419       .  A
C959        C960   1.408       .  A
C959        N963   1.430       .  S
C960        H964   1.083       .  S
N961        O971   1.262   1_556  A
N961        O972   1.262       .  A
N963        O969   1.262       .  A
N963        O970   1.262       .  A
C973        C974   1.407       .  A
C973        C978   1.406       .  A
C973        H983   1.083       .  S
C974        C979   1.493       .  S
C974        C975   1.412       .  A
C975        C976   1.399       .  A
C975        N980   1.431       .  S
C976        C977   1.403       .  A
C976        H981   1.084       .  S
C977        C978   1.412       .  A
C978        N982   1.430       .  S
C979        C984   1.412       .  A
C979        C988   1.404       .  A
N980        O995   1.262       .  A
N980        O996   1.262       .  A
N982        O993   1.262       .  A
N982        O994   1.262       .  A
C984        C985   1.403       .  A
C984        N989   1.429       .  S
C985        C986   1.404       .  A
C985        H990   1.084       .  S
C986        C987   1.414       .  A
C987        C988   1.404       .  A
C987        N991   1.437       .  S
C988        H992   1.083       .  S
N989        O999   1.262       .  A
N989       O1000   1.262       .  A
N991        O997   1.262       .  A
N991        O998   1.263       .  A
C1001      C1002   1.403       .  A
C1001      C1006   1.405       .  A
C1001      H1011   1.084       .  S
C1002      C1007   1.474       .  S
C1002      C1003   1.406       .  A
C1003      C1004   1.395       .  A
C1003      N1008   1.429       .  S
C1004      C1005   1.402       .  A
C1004      H1009   1.084       .  S
C1005      C1006   1.410       .  A
C1006      N1010   1.429       .  S
C1007      C1012   1.405       .  A
C1007      C1016   1.401       .  A
N1008      O1023   1.262       .  A
N1008      O1024   1.262       .  A
N1010      O1021   1.262       .  A
N1010      O1022   1.262       .  A
C1012      C1013   1.402       .  A
C1012      N1017   1.429       .  S
C1013      C1014   1.407       .  A
C1013      H1018   1.084       .  S
C1014      C1015   1.411       .  A
C1015      C1016   1.398       .  A
C1015      N1019   1.429       .  S
C1016      H1020   1.084       .  S
N1017      O1027   1.261       .  A
N1017      O1028   1.262       .  A
N1019      O1025   1.262       .  A
N1019      O1026   1.262       .  A
C1029      C1030   1.407       .  A
C1029      C1034   1.404       .  A
C1029      H1039   1.083       .  S
C1030      C1035   1.489       .  S
C1030      C1031   1.413       .  A
C1031      C1032   1.398       .  A
C1031      N1036   1.432       .  S
C1032      C1033   1.402       .  A
C1032      H1037   1.084       .  S
C1033      C1034   1.408       .  A
C1034      N1038   1.434       .  S
C1035      C1040   1.413       .  A
C1035      C1044   1.405       .  A
N1036      O1051   1.262       .  A
N1036      O1052   1.262       .  A
N1038      O1049   1.262       .  A
N1038      O1050   1.263       .  A
C1040      C1041   1.401       .  A
C1040      N1045   1.430       .  S
C1041      C1042   1.402       .  A
C1041      H1046   1.084       .  S
C1042      C1043   1.410       .  A
C1043      C1044   1.400       .  A
C1043      N1047   1.430       .  S
C1044      H1048   1.083       .  S
N1045      O1055   1.262       .  A
N1045      O1056   1.262       .  A
N1047      O1053   1.262       .  A
N1047      O1054   1.262       .  A
C1057      C1058   1.402       .  A
C1057      C1062   1.398       .  A
C1057      H1067   1.084       .  S
C1058      C1063   1.491       .  S
C1058      C1059   1.413       .  A
C1059      C1060   1.407       .  A
C1059      N1064   1.430       .  S
C1060      C1061   1.405       .  A
C1060      H1065   1.084       .  S
C1061      C1062   1.414       .  A
C1062      N1066   1.431       .  S
C1063      C1068   1.412       .  A
C1063      C1072   1.403       .  A
N1064      O1079   1.262       .  A
N1064      O1080   1.262       .  A
N1066      O1077   1.262       .  A
N1066      O1078   1.262       .  A
C1068      C1069   1.402       .  A
C1068      N1073   1.430       .  S
C1069      C1070   1.404       .  A
C1069      H1074   1.084       .  S
C1070      C1071   1.416       .  A
C1071      C1072   1.403       .  A
C1071      N1075   1.430       .  S
C1072      H1076   1.084       .  S
N1073      O1083   1.262       .  A
N1073      O1084   1.262       .  A
N1075      O1081   1.262       .  A
N1075      O1082   1.262       .  A
C1085      C1086   1.405       .  A
C1085      C1090   1.405       .  A
C1085      H1095   1.083       .  S
C1086      C1091   1.490       .  S
C1086      C1087   1.411       .  A
C1087      C1088   1.401       .  A
C1087      N1092   1.430       .  S
C1088      C1089   1.404       .  A
C1088      H1093   1.084       .  S
C1089      C1090   1.413       .  A
C1090      N1094   1.431       .  S
C1091      C1096   1.408   1_565  A
C1091      C1100   1.403       .  A
N1092      O1107   1.262       .  A
N1092      O1108   1.262       .  A
N1094      O1105   1.262       .  A
N1094      O1106   1.262       .  A
C1096      C1097   1.402       .  A
C1096      N1101   1.429   1_545  S
C1097      C1098   1.410       .  A
C1097      H1102   1.083       .  S
C1098      C1099   1.418       .  A
C1099      C1100   1.403   1_545  A
C1099      N1103   1.429       .  S
C1100      H1104   1.084       .  S
N1101      O1111   1.262   1_565  A
N1101      O1112   1.262       .  A
N1103      O1109   1.262       .  A
N1103      O1110   1.262   1_545  A
C1113      C1114   1.403       .  A
C1113      C1118   1.405       .  A
C1113      H1123   1.084       .  S
C1114      C1119   1.480       .  S
C1114      C1115   1.410       .  A
C1115      C1116   1.398       .  A
C1115      N1120   1.432       .  S
C1116      C1117   1.402       .  A
C1116      H1121   1.084       .  S
C1117      C1118   1.410       .  A
C1118      N1122   1.428       .  S
C1119      C1124   1.407       .  A
C1119      C1128   1.402       .  A
N1120      O1135   1.262       .  A
N1120      O1136   1.262       .  A
N1122      O1133   1.262       .  A
N1122      O1134   1.262       .  A
C1124      C1125   1.396       .  A
C1124      N1129   1.430       .  S
C1125      C1126   1.406       .  A
C1125      H1130   1.084       .  S
C1126      C1127   1.416       .  A
C1127      C1128   1.406       .  A
C1127      N1131   1.429       .  S
C1128      H1132   1.084       .  S
N1129      O1139   1.262       .  A
N1129      O1140   1.262       .  A
N1131      O1137   1.262       .  A
N1131      O1138   1.261       .  A
C1141      C1142   1.402       .  A
C1141      C1146   1.402       .  A
C1141      H1151   1.084       .  S
C1142      C1147   1.485       .  S
C1142      C1143   1.411       .  A
C1143      C1144   1.403       .  A
C1143      N1148   1.430       .  S
C1144      C1145   1.405       .  A
C1144      H1149   1.084       .  S
C1145      C1146   1.413       .  A
C1146      N1150   1.430       .  S
C1147      C1152   1.413       .  A
C1147      C1156   1.401       .  A
N1148      O1163   1.262       .  A
N1148      O1164   1.262       .  A
N1150      O1161   1.262       .  A
N1150      O1162   1.262       .  A
C1152      C1153   1.407       .  A
C1152      N1157   1.432       .  S
C1153      C1154   1.406       .  A
C1153      H1158   1.084       .  S
C1154      C1155   1.413       .  A
C1155      C1156   1.399       .  A
C1155      N1159   1.430       .  S
C1156      H1160   1.084       .  S
N1157      O1167   1.262       .  A
N1157      O1168   1.262       .  A
N1159      O1165   1.262       .  A
N1159      O1166   1.262       .  A
C1169      C1170   1.401       .  A
C1169      C1174   1.404       .  A
C1169      H1179   1.084       .  S
C1170      C1175   1.488       .  S
C1170      C1171   1.409       .  A
C1171      C1172   1.402       .  A
C1171      N1176   1.429       .  S
C1172      C1173   1.408       .  A
C1172      H1177   1.084       .  S
C1173      C1174   1.419       .  A
C1174      N1178   1.429       .  S
C1175      C1180   1.411       .  A
C1175      C1184   1.400       .  A
N1176      O1191   1.262       .  A
N1176      O1192   1.262       .  A
N1178      O1189   1.262       .  A
N1178      O1190   1.262       .  A
C1180      C1181   1.408       .  A
C1180      N1185   1.429       .  S
C1181      C1182   1.407       .  A
C1181      H1186   1.084       .  S
C1182      C1183   1.416       .  A
C1183      C1184   1.399       .  A
C1183      N1187   1.431       .  S
C1184      H1188   1.084       .  S
N1185      O1195   1.262       .  A
N1185      O1196   1.262       .  A
N1187      O1193   1.262       .  A
N1187      O1194   1.262       .  A
C1197      C1198   1.408       .  A
C1197      C1202   1.405       .  A
C1197      H1207   1.083       .  S
C1198      C1203   1.496       .  S
C1198      C1199   1.411       .  A
C1199      C1200   1.402       .  A
C1199      N1204   1.430       .  S
C1200      C1201   1.408       .  A
C1200      H1205   1.084       .  S
C1201      C1202   1.414       .  A
C1202      N1206   1.430       .  S
C1203      C1208   1.410       .  A
C1203      C1212   1.408       .  A
N1204      O1219   1.262       .  A
N1204      O1220   1.262       .  A
N1206      O1217   1.262       .  A
N1206      O1218   1.262       .  A
C1208      C1209   1.398       .  A
C1208      N1213   1.431       .  S
C1209      C1210   1.410       .  A
C1209      H1214   1.083   1_556  S
C1210      C1211   1.417       .  A
C1211      C1212   1.409       .  A
C1211      N1215   1.429       .  S
C1212      H1216   1.083       .  S
N1213      O1223   1.262   1_556  A
N1213      O1224   1.262       .  A
N1215      O1221   1.262       .  A
N1215      O1222   1.262       .  A
C1225      C1226   1.403       .  A
C1225      C1230   1.408       .  A
C1225      H1235   1.084       .  S
C1226      C1231   1.486       .  S
C1226      C1227   1.406       .  A
C1227      C1228   1.401       .  A
C1227      N1232   1.429       .  S
C1228      C1229   1.409       .  A
C1228      H1233   1.083   1_556  S
C1229      C1230   1.417       .  A
C1230      N1234   1.428       .  S
C1231      C1236   1.410       .  A
C1231      C1240   1.401       .  A
N1232      O1247   1.262   1_556  A
N1232      O1248   1.262       .  A
N1234      O1245   1.262       .  A
N1234      O1246   1.262       .  A
C1236      C1237   1.409       .  A
C1236      N1241   1.428       .  S
C1237      C1238   1.406       .  A
C1237      H1242   1.084       .  S
C1238      C1239   1.413       .  A
C1239      C1240   1.398       .  A
C1239      N1243   1.430       .  S
C1240      H1244   1.084       .  S
N1241      O1251   1.262       .  A
N1241      O1252   1.262       .  A
N1243      O1249   1.262       .  A
N1243      O1250   1.261       .  A
C1253      C1254   1.401       .  A
C1253      C1258   1.401       .  A
C1253      H1263   1.084       .  S
C1254      C1259   1.487       .  S
C1254      C1255   1.410       .  A
C1255      C1256   1.401       .  A
C1255      N1260   1.430       .  S
C1256      C1257   1.407       .  A
C1256      H1261   1.082       .  S
C1257      C1258   1.420       .  A
C1258      N1262   1.429       .  S
C1259      C1264   1.411       .  A
C1259      C1268   1.401       .  A
N1260      O1275   1.262       .  A
N1260      O1276   1.262       .  A
N1262      O1273   1.262       .  A
N1262      O1274   1.262       .  A
C1264      C1265   1.404       .  A
C1264      N1269   1.429       .  S
C1265      C1266   1.406       .  A
C1265      H1270   1.084       .  S
C1266      C1267   1.417       .  A
C1267      C1268   1.398       .  A
C1267      N1271   1.430       .  S
C1268      H1272   1.084       .  S
N1269      O1279   1.262       .  A
N1269      O1280   1.262       .  A
N1271      O1277   1.262       .  A
N1271      O1278   1.262       .  A
C1281      C1282   1.401       .  A
C1281      C1286   1.404       .  A
C1281      H1291   1.084       .  S
C1282      C1287   1.480       .  S
C1282      C1283   1.405       .  A
C1283      C1284   1.399       .  A
C1283      N1288   1.429       .  S
C1284      C1285   1.409       .  A
C1284      H1289   1.084       .  S
C1285      C1286   1.416       .  A
C1286      N1290   1.428       .  S
C1287      C1292   1.409       .  A
C1287      C1296   1.403       .  A
N1288      O1303   1.262       .  A
N1288      O1304   1.262       .  A
N1290      O1301   1.262       .  A
N1290      O1302   1.262       .  A
C1292      C1293   1.400       .  A
C1292      N1297   1.429       .  S
C1293      C1294   1.400       .  A
C1293      H1298   1.084       .  S
C1294      C1295   1.408       .  A
C1295      C1296   1.404       .  A
C1295      N1299   1.429       .  S
C1296      H1300   1.084       .  S
N1297      O1307   1.262       .  A
N1297      O1308   1.262       .  A
N1299      O1305   1.262       .  A
N1299      O1306   1.262       .  A
C1309      C1310   1.400       .  A
C1309      C1314   1.403       .  A
C1309      H1319   1.084       .  S
C1310      C1315   1.482       .  S
C1310      C1311   1.407       .  A
C1311      C1312   1.402       .  A
C1311      N1316   1.429       .  S
C1312      C1313   1.409       .  A
C1312      H1317   1.083       .  S
C1313      C1314   1.418       .  A
C1314      N1318   1.429       .  S
C1315      C1320   1.407       .  A
C1315      C1324   1.400       .  A
N1316      O1331   1.262   1_556  A
N1316      O1332   1.262       .  A
N1318      O1329   1.262       .  A
N1318      O1330   1.261       .  A
C1320      C1321   1.403       .  A
C1320      N1325   1.429       .  S
C1321      C1322   1.409       .  A
C1321      H1326   1.083       .  S
C1322      C1323   1.417   1_556  A
C1323      C1324   1.403   1_554  A
C1323      N1327   1.429       .  S
C1324      H1328   1.084   1_556  S
N1325      O1335   1.262       .  A
N1325      O1336   1.262       .  A
N1327      O1333   1.262       .  A
N1327      O1334   1.262       .  A
C1337      C1338   1.403       .  A
C1337      C1342   1.405   1_556  A
C1337      H1347   1.084   1_556  S
C1338      C1343   1.484       .  S
C1338      C1339   1.408       .  A
C1339      C1340   1.399       .  A
C1339      N1344   1.430       .  S
C1340      C1341   1.406       .  A
C1340      H1345   1.084       .  S
C1341      C1342   1.416   1_556  A
C1342      N1346   1.430       .  S
C1343      C1348   1.407       .  A
C1343      C1352   1.402       .  A
N1344      O1359   1.262       .  A
N1344      O1360   1.262       .  A
N1346      O1357   1.262       .  A
N1346      O1358   1.262       .  A
C1348      C1349   1.404       .  A
C1348      N1353   1.428   1_556  S
C1349      C1350   1.408       .  A
C1349      H1354   1.084       .  S
C1350      C1351   1.415       .  A
C1351      C1352   1.401       .  A
C1351      N1355   1.429       .  S
C1352      H1356   1.084       .  S
N1353      O1363   1.262       .  A
N1353      O1364   1.262       .  A
N1355      O1361   1.262       .  A
N1355      O1362   1.261       .  A
C1365      C1366   1.404       .  A
C1365      C1370   1.400       .  A
C1365      H1375   1.084       .  S
C1366      C1371   1.481       .  S
C1366      C1367   1.410       .  A
C1367      C1368   1.400       .  A
C1367      N1372   1.429       .  S
C1368      C1369   1.400       .  A
C1368      H1373   1.084       .  S
C1369      C1370   1.407       .  A
C1370      N1374   1.429       .  S
C1371      C1376   1.408       .  A
C1371      C1380   1.403       .  A
N1372      O1387   1.262       .  A
N1372      O1388   1.262       .  A
N1374      O1385   1.262       .  A
N1374      O1386   1.262       .  A
C1376      C1377   1.395       .  A
C1376      N1381   1.430       .  S
C1377      C1378   1.404       .  A
C1377      H1382   1.084       .  S
C1378      C1379   1.415       .  A
C1379      C1380   1.405       .  A
C1379      N1383   1.429       .  S
C1380      H1384   1.084       .  S
N1381      O1391   1.262       .  A
N1381      O1392   1.262       .  A
N1383      O1389   1.262       .  A
N1383      O1390   1.262       .  A
C1393      C1394   1.403       .  A
C1393      C1398   1.406       .  A
C1393      H1403   1.084       .  S
C1394      C1399   1.487       .  S
C1394      C1395   1.410       .  A
C1395      C1396   1.401       .  A
C1395      N1400   1.432       .  S
C1396      C1397   1.408       .  A
C1396      H1401   1.083       .  S
C1397      C1398   1.417       .  A
C1398      N1402   1.428       .  S
C1399      C1404   1.410       .  A
C1399      C1408   1.402       .  A
N1400      O1415   1.262       .  A
N1400      O1416   1.262   1_556  A
N1402      O1413   1.262       .  A
N1402      O1414   1.262       .  A
C1404      C1405   1.403   1_566  A
C1404      N1409   1.433   1_556  S
C1405      C1406   1.409   1_554  A
C1405      H1410   1.083       .  S
C1406      C1407   1.416       .  A
C1407      C1408   1.405   1_545  A
C1407      N1411   1.429       .  S
C1408      H1412   1.084       .  S
N1409      O1419   1.262   1_554  A
N1409      O1420   1.262       .  A
N1411      O1417   1.262       .  A
N1411      O1418   1.262       .  A
C1421      C1422   1.401       .  A
C1421      C1426   1.398       .  A
C1421      H1431   1.084       .  S
C1422      C1427   1.492       .  S
C1422      C1423   1.414       .  A
C1423      C1424   1.405       .  A
C1423      N1428   1.430       .  S
C1424      C1425   1.406       .  A
C1424      H1429   1.083       .  S
C1425      C1426   1.420       .  A
C1426      N1430   1.430   1_556  S
C1427      C1432   1.416       .  A
C1427      C1436   1.403       .  A
N1428      O1443   1.262       .  A
N1428      O1444   1.262       .  A
N1430      O1441   1.262       .  A
N1430      O1442   1.262       .  A
C1432      C1433   1.405       .  A
C1432      N1437   1.431       .  S
C1433      C1434   1.403       .  A
C1433      H1438   1.084       .  S
C1434      C1435   1.414       .  A
C1435      C1436   1.398       .  A
C1435      N1439   1.429       .  S
C1436      H1440   1.083       .  S
N1437      O1447   1.262       .  A
N1437      O1448   1.262       .  A
N1439      O1445   1.262       .  A
N1439      O1446   1.262       .  A
C1449      C1450   1.402       .  A
C1449      C1454   1.403       .  A
C1449      H1459   1.084       .  S
C1450      C1455   1.481       .  S
C1450      C1451   1.407       .  A
C1451      C1452   1.402       .  A
C1451      N1456   1.428       .  S
C1452      C1453   1.405       .  A
C1452      H1457   1.084       .  S
C1453      C1454   1.412       .  A
C1454      N1458   1.429       .  S
C1455      C1460   1.409       .  A
C1455      C1464   1.400       .  A
N1456      O1471   1.262       .  A
N1456      O1472   1.262       .  A
N1458      O1469   1.262       .  A
N1458      O1470   1.262       .  A
C1460      C1461   1.406       .  A
C1460      N1465   1.428       .  S
C1461      C1462   1.404       .  A
C1461      H1466   1.084       .  S
C1462      C1463   1.410       .  A
C1463      C1464   1.398       .  A
C1463      N1467   1.429       .  S
C1464      H1468   1.084       .  S
N1465      O1475   1.262       .  A
N1465      O1476   1.262       .  A
N1467      O1473   1.262       .  A
N1467      O1474   1.262       .  A
C1477      C1478   1.406       .  A
C1477      C1482   1.403       .  A
C1477      H1487   1.084       .  S
C1478      C1483   1.495       .  S
C1478      C1479   1.411       .  A
C1479      C1480   1.403       .  A
C1479      N1484   1.429       .  S
C1480      C1481   1.408       .  A
C1480      H1485   1.084       .  S
C1481      C1482   1.413       .  A
C1482      N1486   1.430       .  S
C1483      C1488   1.408       .  A
C1483      C1492   1.406       .  A
N1484      O1499   1.262       .  A
N1484      O1500   1.262       .  A
N1486      O1497   1.262       .  A
N1486      O1498   1.262       .  A
C1488      C1489   1.397       .  A
C1488      N1493   1.431       .  S
C1489      C1490   1.413       .  A
C1489      H1494   1.083       .  S
C1490      C1491   1.417       .  A
C1491      C1492   1.410       .  A
C1491      N1495   1.426       .  S
C1492      H1496   1.083       .  S
N1493      O1503   1.262       .  A
N1493      O1504   1.262       .  A
N1495      O1501   1.262       .  A
N1495      O1502   1.262       .  A
C1505      C1506   1.401       .  A
C1505      C1510   1.402       .  A
C1505      H1515   1.084       .  S
C1506      C1511   1.474       .  S
C1506      C1507   1.410       .  A
C1507      C1508   1.397       .  A
C1507      N1512   1.433       .  S
C1508      C1509   1.402       .  A
C1508      H1513   1.084       .  S
C1509      C1510   1.408       .  A
C1510      N1514   1.428       .  S
C1511      C1516   1.406       .  A
C1511      C1520   1.399       .  A
N1512      O1527   1.262       .  A
N1512      O1528   1.262       .  A
N1514      O1525   1.262       .  A
N1514      O1526   1.261       .  A
C1516      C1517   1.395       .  A
C1516      N1521   1.430       .  S
C1517      C1518   1.406       .  A
C1517      H1522   1.084       .  S
C1518      C1519   1.415       .  A
C1519      C1520   1.402       .  A
C1519      N1523   1.428       .  S
C1520      H1524   1.084       .  S
N1521      O1531   1.262       .  A
N1521      O1532   1.262       .  A
N1523      O1529   1.261       .  A
N1523      O1530   1.261       .  A
C1533      C1534   1.399       .  A
C1533      C1538   1.400       .  A
C1533      H1543   1.084       .  S
C1534      C1539   1.484       .  S
C1534      C1535   1.407       .  A
C1535      C1536   1.406       .  A
C1535      N1540   1.430       .  S
C1536      C1537   1.411       .  A
C1536      H1541   1.083       .  S
C1537      C1538   1.420       .  A
C1538      N1542   1.428       .  S
C1539      C1544   1.407       .  A
C1539      C1548   1.403       .  A
N1540      O1555   1.262       .  A
N1540      O1556   1.262       .  A
N1542      O1553   1.261       .  A
N1542      O1554   1.262       .  A
C1544      C1545   1.402       .  A
C1544      N1549   1.428       .  S
C1545      C1546   1.405       .  A
C1545      H1550   1.084       .  S
C1546      C1547   1.415       .  A
C1547      C1548   1.403       .  A
C1547      N1551   1.430       .  S
C1548      H1552   1.084       .  S
N1549      O1559   1.261       .  A
N1549      O1560   1.262       .  A
N1551      O1557   1.262       .  A
N1551      O1558   1.262       .  A
C1561      C1562   1.402       .  A
C1561      C1566   1.404       .  A
C1561      H1571   1.084       .  S
C1562      C1567   1.483       .  S
C1562      C1563   1.408       .  A
C1563      C1564   1.401       .  A
C1563      N1568   1.429       .  S
C1564      C1565   1.406       .  A
C1564      H1569   1.083       .  S
C1565      C1566   1.413       .  A
C1566      N1570   1.428       .  S
C1567      C1572   1.406       .  A
C1567      C1576   1.400       .  A
N1568      O1583   1.262       .  A
N1568      O1584   1.262       .  A
N1570      O1581   1.262       .  A
N1570      O1582   1.261       .  A
C1572      C1573   1.403       .  A
C1572      N1577   1.429       .  S
C1573      C1574   1.408       .  A
C1573      H1578   1.084       .  S
C1574      C1575   1.418       .  A
C1575      C1576   1.406       .  A
C1575      N1579   1.432       .  S
C1576      H1580   1.084       .  S
N1577      O1587   1.262       .  A
N1577      O1588   1.262       .  A
N1579      O1585   1.262       .  A
N1579      O1586   1.263       .  A
C1589      C1590   1.402       .  A
C1589      C1594   1.404       .  A
C1589      H1599   1.084       .  S
C1590      C1595   1.485       .  S
C1590      C1591   1.407       .  A
C1591      C1592   1.401       .  A
C1591      N1596   1.430       .  S
C1592      C1593   1.408       .  A
C1592      H1597   1.083       .  S
C1593      C1594   1.418       .  A
C1594      N1598   1.430       .  S
C1595      C1600   1.406       .  A
C1595      C1604   1.400       .  A
N1596      O1611   1.262       .  A
N1596      O1612   1.262       .  A
N1598      O1609   1.261       .  A
N1598      O1610   1.262       .  A
C1600      C1601   1.402   1_545  A
C1600      N1605   1.429       .  S
C1601      C1602   1.410       .  A
C1601      H1606   1.083       .  S
C1602      C1603   1.421       .  A
C1603      C1604   1.403   1_565  A
C1603      N1607   1.429       .  S
C1604      H1608   1.084       .  S
N1605      O1615   1.262       .  A
N1605      O1616   1.262       .  A
N1607      O1613   1.262       .  A
N1607      O1614   1.262   1_565  A
