geometry optimzed in LAMMPS
_audit_creation_date              2020-11-30 
_audit_creation_method            'lammps2cif' 
_symmetry_space_group_name_H-M    'P1' 
_symmetry_Int_Tables_number       1 
_symmetry_cell_setting            triclinic 
loop_ 
_symmetry_equiv_pos_as_xyz 
  x,y,z 
_cell_length_a                    26.97986223 
_cell_length_b                    27.006756719152065 
_cell_length_c                    38.51135828544844 
_cell_angle_alpha                 89.92725455597862 
_cell_angle_beta                  90.01424097311204 
_cell_angle_gamma                 90.45445852218923 
loop_ 
_atom_site_label 
_atom_site_type_symbol 
_atom_site_fract_x 
_atom_site_fract_y 
_atom_site_fract_z 
_atom_site_charge 
C1          C  0.99086581  0.84170093  0.42714819     0.42900
N2          N  0.01563489  0.89427847  0.46514821     0.01700
C3          C  0.87045123  0.04655442  0.06763924    -0.06100
H4          H  0.86028106  0.08692606  0.43718235     0.07200
C5          C  0.04429188  0.12914749  0.43703770    -0.06500
Co6        Co  0.93093171  0.93898434  0.50360066     0.74200
N7          N  0.89664220  0.02977826  0.46670436    -0.25700
Co8        Co  0.93891188  0.06727409  0.00347703     0.74100
C9          C  0.99989242  0.15174637  0.42266328     0.43000
N10         N  0.10050284  0.01753950  0.46144576     0.01400
N11         N  0.97889672  0.10336820  0.46437494     0.01500
N12         N  0.86607903  0.96290612  0.06578886    -0.46500
H13         H  0.90883126  0.85743605  0.43887420     0.07200
N14         N  0.89399247  0.98094283  0.46601590     0.01800
N15         N  0.98302760  0.10347260  0.04012014     0.01500
C16         C  0.00898392  0.15305900  0.07954796     0.43100
N17         N  0.09801729  0.96871523  0.46255536    -0.25100
C18         C  0.95191837  0.87073006  0.06715615    -0.06000
N19         N  0.03157026  0.86110831  0.44249142    -0.46200
N20         N  0.96775051  0.13475186  0.06425583    -0.46400
C21         C  0.99599101  0.85016086  0.08366745     0.42900
N22         N  0.89656853  0.98066070  0.04184854     0.01700
N23         N  0.10154406  0.97061595  0.03805626    -0.25100
N24         N  0.96682090  0.89723551  0.46591268    -0.25600
N25         N  0.10481519  0.01939949  0.03706073     0.01400
H26         H  0.13960758  0.91535820  0.06842333     0.07300
H27         H  0.09063017  0.13860657  0.06596042     0.07300
N28         N  0.89956117  0.02946545  0.04210301    -0.25700
N29         N  0.02763208  0.10012550  0.46286717    -0.25300
N30         N  0.01816524  0.89660019  0.04093511     0.01700
C31         C  0.84536086  0.00469476  0.42530967     0.43100
C32         C  0.12599149  0.95045956  0.43689772    -0.06500
N33         N  0.03181915  0.10106624  0.03825303    -0.25300
H34         H  0.08277850  0.13585732  0.43058961     0.07300
N35         N  0.86304706  0.96433547  0.44186782    -0.46500
H36         H  0.13264529  0.91164714  0.43202730     0.07300
C37         C  0.15565729  0.99828932  0.07692489     0.43000
C38         C  0.94780379  0.86544011  0.44264047    -0.06000
Co39       Co  0.05898790  0.93181986  0.50173137     0.73800
N40         N  0.12951910  0.03415456  0.43617447    -0.46200
C41         C  0.84847562  0.00220602  0.08325501     0.43200
N42         N  0.03556973  0.86696142  0.06545698    -0.46200
Co43       Co  0.06690289  0.06006088  0.99980781     0.73900
C44         C  0.05154301  0.13110589  0.06230741    -0.06500
C45         C  0.86689779  0.04809491  0.44209136    -0.06100
N46         N  0.96932855  0.89909813  0.04122806    -0.25600
N47         N  0.96075760  0.13420218  0.44088843    -0.46400
H48         H  0.86311189  0.08509474  0.07303205     0.07300
C49         C  0.13232908  0.95383350  0.06270316    -0.06500
Cl50       Cl  0.99893533  0.99951101  0.00213103    -0.49500
C51         C  0.14613891  0.99394681  0.41908268     0.43000
H52         H  0.91319716  0.86385890  0.07278901     0.07200
N53         N  0.13732595  0.03744764  0.05956797    -0.46200
C54         C  0.99144574  0.54413778  0.23431628     0.02700
C55         C  0.99189524  0.54194424  0.27115307     0.02600
C56         C  0.99473069  0.49566909  0.28772814    -0.17900
C57         C  0.99678489  0.45170330  0.26856294     0.02700
C58         C  0.99593925  0.45377325  0.23208850     0.02600
C59         C  0.99390355  0.49978205  0.21530062    -0.17900
H60         H  0.99435822  0.50105497  0.18715758     0.04700
H61         H  0.99521627  0.49381391  0.31586137     0.04700
C62         C  0.54304212  0.99378525  0.27163508     0.02700
C63         C  0.54495138  0.99274441  0.23489362     0.02600
C64         C  0.50074875  0.99480112  0.21587368    -0.17900
C65         C  0.45472038  0.99860825  0.23241602     0.02700
C66         C  0.45234214  0.99975865  0.26910127     0.02600
C67         C  0.49668567  0.99699920  0.28819639    -0.17900
H68         H  0.49515186  0.99796718  0.31631852     0.04700
H69         H  0.50224263  0.99424368  0.18772880     0.04700
C70         C  0.28681732  0.01739086  0.11013151    -0.22100
C71         C  0.28115791  0.00379916  0.14500862     0.09900
C72         C  0.23421013  0.98915339  0.15757908     0.10300
C73         C  0.19385670  0.98730384  0.13459355    -0.17000
C74         C  0.19950761  0.00047865  0.09958559    -0.27400
C75         C  0.24661385  0.01564472  0.08709380     0.18600
C76         C  0.32552179  0.00235537  0.16743816     0.12600
C77         C  0.22692788  0.97559725  0.19521423    -0.11800
H78         H  0.15765421  0.97587891  0.14400299     0.12900
C79         C  0.25641594  0.02842217  0.04955836    -0.22600
H80         H  0.32317996  0.02822959  0.10064053     0.08500
C81         C  0.35415477  0.95906792  0.17005491     0.04900
C82         C  0.39613455  0.95913677  0.19145059    -0.19800
C83         C  0.40990086  0.00143061  0.21035651    -0.12100
C84         C  0.38153648  0.04508425  0.20731153     0.13600
C85         C  0.33934449  0.04482116  0.18602377    -0.22500
C86         C  0.34031334  0.91288404  0.15026607    -0.05600
H87         H  0.41821605  0.92592056  0.19371680     0.15100
C88         C  0.39527798  0.09272994  0.22534513    -0.15800
H89         H  0.31734735  0.07807835  0.18360696     0.09400
H90         H  0.28609197  0.00420244  0.03931728     0.07300
H91         H  0.26893251  0.06758839  0.04758300     0.08500
H92         H  0.22362205  0.02333937  0.03262010     0.07500
H93         H  0.23702324  0.00764769  0.21188266     0.02400
H94         H  0.25074388  0.94375708  0.20215094     0.02900
H95         H  0.18784201  0.96515472  0.20080855     0.06400
H96         H  0.36669687  0.88234214  0.15530233     0.05400
H97         H  0.34044968  0.92076715  0.12196753    -0.00400
H98         H  0.30276502  0.90004251  0.15808538     0.01100
H99         H  0.39943383  0.12274572  0.20581106     0.04700
H100        H  0.43068967  0.09046868  0.23975204     0.06700
H101        H  0.36551532  0.10284346  0.24387609     0.07600
C102        C  0.22996124  0.02713450  0.34280072    -0.22100
C103        C  0.27132999  0.99777504  0.35007329     0.09900
C104        C  0.27112818  0.96708571  0.37975535     0.10300
C105        C  0.22900195  0.96550593  0.40107782    -0.17000
C106        C  0.18761315  0.99503490  0.39404354    -0.27400
C107        C  0.18800668  0.02625107  0.36445509     0.18600
C108        C  0.31520396  0.00040891  0.32693008     0.12600
C109        C  0.31594618  0.93712049  0.38948566    -0.11800
H110        H  0.22902538  0.94223851  0.42403540     0.12900
C111        C  0.14461500  0.05808521  0.35439021    -0.22600
H112        H  0.23039151  0.05079507  0.32003469     0.08500
C113        C  0.32314576  0.96497575  0.30069125     0.04900
C114        C  0.36795252  0.96581569  0.28211677    -0.19800
C115        C  0.40416378  0.00262106  0.28807718    -0.12100
C116        C  0.39438047  0.04011088  0.31288779     0.13600
C117        C  0.35048770  0.03786767  0.33240627    -0.22500
C118        C  0.28427804  0.92645031  0.29229744    -0.05600
H119        H  0.37506330  0.93708448  0.26320296     0.15100
C120        C  0.42859329  0.08363079  0.31909114    -0.15800
H121        H  0.34371002  0.06561352  0.35214463     0.09400
H122        H  0.13241192  0.04835928  0.32769903     0.07300
H123        H  0.15600433  0.09767767  0.35483122     0.08500
H124        H  0.11216237  0.05330376  0.37169962     0.07500
H125        H  0.34822294  0.96220890  0.39355883     0.02400
H126        H  0.32479954  0.91051504  0.36851422     0.02900
H127        H  0.30982672  0.91575303  0.41379252     0.06400
H128        H  0.29611821  0.90200299  0.27071287     0.05400
H129        H  0.24948420  0.94499594  0.28432661    -0.00400
H130        H  0.27672352  0.90295475  0.31536821     0.01100
H131        H  0.40777316  0.11854371  0.31535547     0.04700
H132        H  0.46054410  0.08498231  0.30109639     0.06700
H133        H  0.44279484  0.08237406  0.34613513     0.07600
C134        C  0.66938372  0.95488166  0.19614487    -0.22100
C135        C  0.68022980  0.99643826  0.17560092     0.09900
C136        C  0.64698502  0.03643118  0.17474944     0.10300
C137        C  0.60369122  0.03417735  0.19479630    -0.17000
C138        C  0.59238372  0.99251576  0.21525686    -0.27400
C139        C  0.62545721  0.95203659  0.21564909     0.18600
C140        C  0.72461390  0.99603655  0.15304667     0.12600
C141        C  0.65683882  0.08108818  0.15221135    -0.11800
H142        H  0.57817024  0.06498177  0.19434582     0.12900
C143        C  0.61480417  0.90467751  0.23504624    -0.22600
H144        H  0.69466224  0.92386706  0.19613264     0.08500
C145        C  0.77049242  0.01590565  0.16403784     0.04900
C146        C  0.81026228  0.01802106  0.14049230    -0.19800
C147        C  0.80516221  0.99996859  0.10652061    -0.12100
C148        C  0.75914225  0.97950012  0.09572026     0.13600
C149        C  0.71962929  0.97758188  0.11928424    -0.22500
C150        C  0.77732651  0.03456394  0.20057465    -0.05600
H151        H  0.84563379  0.03333185  0.14870802     0.15100
C152        C  0.74936182  0.96107991  0.05935635    -0.15800
H153        H  0.68409730  0.96267318  0.11097749     0.09400
H154        H  0.64370621  0.89893227  0.25515264     0.07300
H155        H  0.61536334  0.87306289  0.21664700     0.08500
H156        H  0.57807306  0.90444100  0.24784163     0.07500
H157        H  0.65906799  0.06965239  0.12457797     0.02400
H158        H  0.69236944  0.09892577  0.15989615     0.02900
H159        H  0.62701357  0.10899397  0.15458652     0.06400
H160        H  0.81560349  0.04861701  0.20501830     0.05400
H161        H  0.77004960  0.00402585  0.21927057    -0.00400
H162        H  0.75116386  0.06518204  0.20576941     0.01100
H163        H  0.74068009  0.92083253  0.06014217     0.04700
H164        H  0.78067621  0.96722808  0.04130410     0.06700
H165        H  0.71704615  0.98088008  0.04831869     0.07600
C166        C  0.64052420  0.96284959  0.34001476    -0.22100
C167        C  0.67528180  0.00074988  0.33437650     0.09900
C168        C  0.66744057  0.03544941  0.30759917     0.10300
C169        C  0.62385901  0.03244505  0.28781483    -0.17000
C170        C  0.58887931  0.99432334  0.29319542    -0.27400
C171        C  0.59778161  0.95861887  0.31947582     0.18600
C172        C  0.71940813  0.00339132  0.35714195     0.12600
C173        C  0.70520516  0.07529318  0.29973720    -0.11800
H174        H  0.61695152  0.06015894  0.26806811     0.12900
C175        C  0.56405557  0.91483536  0.32614065    -0.22600
H176        H  0.64712198  0.93598073  0.36042541     0.08500
C177        C  0.71982223  0.03297953  0.38728407     0.04900
C178        C  0.76213671  0.03365939  0.40845926    -0.19800
C179        C  0.80335609  0.00419661  0.40076487    -0.12100
C180        C  0.80281126  0.97441129  0.37056090     0.13600
C181        C  0.76073116  0.97445984  0.34909744    -0.22500
C182        C  0.67508487  0.06261537  0.39760662    -0.05600
H183        H  0.76243457  0.05613659  0.43176239     0.15100
C184        C  0.84616529  0.94319214  0.35963137    -0.15800
H185        H  0.76009187  0.95172661  0.32590944     0.09400
H186        H  0.54811489  0.91763550  0.35263877     0.07300
H187        H  0.58575524  0.88016352  0.32434578     0.08500
H188        H  0.53332977  0.91156898  0.30722645     0.07500
H189        H  0.74105042  0.05803330  0.29273680     0.02400
H190        H  0.71072767  0.09934133  0.32276207     0.02900
H191        H  0.69344482  0.09900936  0.27768133     0.06400
H192        H  0.68144246  0.08324121  0.42216081     0.05400
H193        H  0.64285512  0.03739187  0.40148787    -0.00400
H194        H  0.66601638  0.08982844  0.37701595     0.01100
H195        H  0.83481614  0.90359044  0.35922022     0.04700
H196        H  0.87873927  0.94715295  0.37692278     0.06700
H197        H  0.85813727  0.95426690  0.33313104     0.07600
C198        C  0.02652436  0.28288512  0.11514579    -0.22100
C199        C  0.00865671  0.27681623  0.14902735     0.09900
C200        C  0.99139083  0.22997278  0.16012992     0.10300
C201        C  0.99175699  0.19015217  0.13672670    -0.17000
C202        C  0.00944548  0.19625747  0.10274504    -0.27400
C203        C  0.02684909  0.24329168  0.09168570     0.18600
C204        C  0.00583302  0.32088786  0.17163505     0.12600
C205        C  0.97321062  0.22204055  0.19671406    -0.11800
H206        H  0.97849471  0.15402396  0.14501185     0.12900
C207        C  0.04416558  0.25380632  0.05514791    -0.22600
H208        H  0.03920395  0.31916312  0.10669990     0.08500
C209        C  0.04814205  0.34049789  0.18835357     0.04900
C210        C  0.04384879  0.38408220  0.20786549    -0.19800
C211        C  0.99813516  0.40804306  0.21111765    -0.12100
C212        C  0.95549762  0.38756344  0.19514936     0.13600
C213        C  0.96003658  0.34442036  0.17529135    -0.22500
C214        C  0.09753827  0.31519760  0.18582495    -0.05600
H215        H  0.07620254  0.39963722  0.22061630     0.15100
C216        C  0.90467113  0.40966619  0.19897762    -0.15800
H217        H  0.92760370  0.32896000  0.16253452     0.09400
H218        H  0.08373608  0.26539856  0.05561036     0.07300
H219        H  0.02188367  0.28432028  0.04394462     0.08500
H220        H  0.04024279  0.22172183  0.03749715     0.07500
H221        H  0.94073036  0.24590898  0.20183105     0.02400
H222        H  0.00321367  0.23152265  0.21535794     0.02900
H223        H  0.96184104  0.18296169  0.20130286     0.06400
H224        H  0.12654058  0.33498108  0.20101397     0.05400
H225        H  0.10972210  0.31386003  0.15832170    -0.00400
H226        H  0.09427388  0.27686734  0.19608768     0.01100
H227        H  0.89033462  0.42037364  0.17303241     0.04700
H228        H  0.90429095  0.44285472  0.21585091     0.06700
H229        H  0.87917642  0.38175068  0.21061675     0.08300
C230        C  0.97634949  0.27737057  0.38142612    -0.22100
C231        C  0.99909175  0.27149391  0.34904118     0.09900
C232        C  0.02181864  0.22613957  0.34079252     0.10300
C233        C  0.02135519  0.18762185  0.36540899    -0.17000
C234        C  0.99832497  0.19343154  0.39785237    -0.27400
C235        C  0.97587627  0.23921093  0.40608788     0.18600
C236        C  0.99956791  0.31438768  0.32500264     0.12600
C237        C  0.04584783  0.21827903  0.30596319    -0.11800
H238        H  0.03877798  0.15266579  0.35925140     0.12900
C239        C  0.95314231  0.25056155  0.44094511    -0.22600
H240        H  0.95962533  0.31261870  0.38779149     0.08500
C241        C  0.95611003  0.32959748  0.30773547     0.04900
C242        C  0.95648782  0.37425054  0.28907289    -0.19800
C243        C  0.99940846  0.40375981  0.28716570    -0.12100
C244        C  0.04358619  0.38734371  0.30306113     0.13600
C245        C  0.04298526  0.34296573  0.32203884    -0.22500
C246        C  0.90941715  0.29871235  0.30907193    -0.05600
H247        H  0.92295840  0.38667931  0.27636790     0.15100
C248        C  0.09185932  0.41557758  0.30043469    -0.15800
H249        H  0.07635809  0.33107639  0.33523162     0.09400
H250        H  0.91298283  0.25792185  0.43763053     0.07300
H251        H  0.97120758  0.28411877  0.45199084     0.08500
H252        H  0.95758372  0.22072734  0.46031860     0.07500
H253        H  0.07688853  0.24500967  0.30240904     0.02400
H254        H  0.01812900  0.22382547  0.28502453     0.02900
H255        H  0.06091470  0.18028948  0.30346489     0.06400
H256        H  0.87924137  0.31538412  0.29342221     0.05400
H257        H  0.89619815  0.29534363  0.33625670    -0.00400
H258        H  0.91692106  0.26122151  0.29859827     0.01100
H259        H  0.10450877  0.42638939  0.32680943     0.04700
H260        H  0.08909705  0.44958721  0.28444314     0.06700
H261        H  0.12030644  0.39158827  0.28837802     0.07600
C262        C  0.95790400  0.64615602  0.16997714    -0.22100
C263        C  0.99692896  0.67984203  0.17508603     0.09900
C264        C  0.03220349  0.67068963  0.20135640     0.10300
C265        C  0.02935483  0.62631588  0.22038404    -0.17000
C266        C  0.99074996  0.59193495  0.21490414    -0.27400
C267        C  0.95376617  0.60279152  0.18987972     0.18600
C268        C  0.99931897  0.72463208  0.15276189     0.12600
C269        C  0.07198492  0.70819214  0.20993650    -0.11800
H270        H  0.05758271  0.61828027  0.23956409     0.12900
C271        C  0.90870367  0.57046078  0.18399626    -0.22600
H272        H  0.93011963  0.65401648  0.15040158     0.08500
C273        C  0.03047639  0.72704677  0.12335964     0.04900
C274        C  0.02991099  0.76950187  0.10226479    -0.19800
C275        C  0.99772904  0.80895605  0.10911834    -0.12100
C276        C  0.96650012  0.80643487  0.13870639     0.13600
C277        C  0.96759008  0.76413859  0.15997684    -0.22500
C278        C  0.06251958  0.68392991  0.11322412    -0.05600
H279        H  0.05333918  0.77098669  0.07942094     0.15100
C280        C  0.93258534  0.84780946  0.14940422    -0.15800
H281        H  0.94348678  0.76194331  0.18246681     0.09400
H282        H  0.90895980  0.55615872  0.15698408     0.07300
H283        H  0.87473503  0.59274711  0.18788145     0.08500
H284        H  0.90631424  0.53860441  0.20202819     0.07500
H285        H  0.05452871  0.74346664  0.21795537     0.02400
H286        H  0.09592665  0.71527441  0.18706881     0.02900
H287        H  0.09595952  0.69540589  0.23156686     0.06400
H288        H  0.08367132  0.69162253  0.08904443     0.05400
H289        H  0.03888602  0.65071948  0.10870879    -0.00400
H290        H  0.08954227  0.67561887  0.13405253     0.01100
H291        H  0.89342491  0.83513705  0.14747810     0.04700
H292        H  0.93742205  0.88178360  0.13366500     0.06700
H293        H  0.94046678  0.85824848  0.17674798     0.07600
C294        C  0.97188758  0.71080513  0.39289518    -0.22100
C295        C  0.99272886  0.71509538  0.35970922     0.09900
C296        C  0.01310577  0.76082787  0.34887630     0.10300
C297        C  0.01255539  0.80134439  0.37173135    -0.17000
C298        C  0.99127855  0.79729429  0.40485182    -0.27400
C299        C  0.97114156  0.75120953  0.41577429     0.18600
C300        C  0.99311964  0.67101153  0.33684318     0.12600
C301        C  0.03486206  0.76686368  0.31308502    -0.11800
H302        H  0.02810930  0.83660433  0.36353024     0.12900
C303        C  0.95011108  0.74256958  0.45157381    -0.22600
H304        H  0.95664972  0.67541988  0.40115928     0.08500
C305        C  0.03304031  0.63762195  0.33708694     0.04900
C306        C  0.03180314  0.59644192  0.31491427    -0.19800
C307        C  0.99086604  0.58701420  0.29327926    -0.12100
C308        C  0.94984916  0.61940060  0.29430774     0.13600
C309        C  0.95208821  0.66166423  0.31545981    -0.22500
C310        C  0.07647511  0.64504782  0.36115751    -0.05600
H311        H  0.06277462  0.57111193  0.31463276     0.15100
C312        C  0.90236513  0.60947633  0.27486942    -0.15800
H313        H  0.92098147  0.68682429  0.31603576     0.09400
H314        H  0.97015178  0.71165071  0.46424041     0.07300
H315        H  0.91027081  0.73238525  0.44947565     0.08500
H316        H  0.95361842  0.77511867  0.46883947     0.07500
H317        H  0.00604046  0.75886142  0.29323749     0.02400
H318        H  0.06611049  0.74087383  0.30955676     0.02900
H319        H  0.04902778  0.80508434  0.30868800     0.06400
H320        H  0.10435871  0.61531007  0.35819789     0.05400
H321        H  0.06341324  0.64477272  0.38849762    -0.00400
H322        H  0.09492664  0.68105495  0.35560196     0.01100
H323        H  0.87087829  0.60877893  0.29343274     0.04700
H324        H  0.90222930  0.57340959  0.26127954     0.06700
H325        H  0.89618686  0.63935578  0.25555720     0.07600
C326        C  0.99086555  0.84170090  0.92714827     0.42900
N327        N  0.01563473  0.89427853  0.96514819     0.01700
C328        C  0.87045125  0.04655411  0.56763928    -0.06100
H329        H  0.86028133  0.08692630  0.93718223     0.07200
C330        C  0.04429198  0.12914755  0.93703768    -0.06500
Co331      Co  0.93093161  0.93898449  0.00360066     0.74200
N332        N  0.89664222  0.02977845  0.96670434    -0.25700
Co333      Co  0.93891185  0.06727396  0.50347704     0.74100
C334        C  0.99989249  0.15174652  0.92266331     0.43000
N335        N  0.10050282  0.01753950  0.96144567     0.01400
N336        N  0.97889677  0.10336830  0.96437492     0.01500
N337        N  0.86607918  0.96290586  0.56578888    -0.46500
H338        H  0.90883104  0.85743607  0.93887434     0.07200
N339        N  0.89399242  0.98094303  0.96601588     0.01800
N340        N  0.98302752  0.10347254  0.54012018     0.01500
C341        C  0.00898376  0.15305901  0.57954799     0.43100
N342        N  0.09801724  0.96871522  0.96255526    -0.25100
C343        C  0.95191842  0.87072998  0.56715619    -0.06000
N344        N  0.03157004  0.86110830  0.94249144    -0.46200
N345        N  0.96775038  0.13475182  0.56425585    -0.46400
C346        C  0.99599108  0.85016082  0.58366751     0.42900
N347        N  0.89656861  0.98066050  0.54184854     0.01700
N348        N  0.10154403  0.97061593  0.53805632    -0.25100
N349        N  0.96682074  0.89723560  0.96591270    -0.25600
N350        N  0.10481517  0.01939947  0.53706081     0.01400
H351        H  0.13960752  0.91535811  0.56842333     0.07300
H352        H  0.09063003  0.13860669  0.56596045     0.07300
N353        N  0.89956118  0.02946525  0.54210303    -0.25700
N354        N  0.02763212  0.10012554  0.96286713    -0.25300
N355        N  0.01816532  0.89660006  0.54093513     0.01700
C356        C  0.84536102  0.00469502  0.92530954     0.43100
C357        C  0.12599137  0.95045957  0.93689759    -0.06500
N358        N  0.03181907  0.10106624  0.53825308    -0.25300
H359        H  0.08277857  0.13585735  0.93058959     0.07300
N360        N  0.86304710  0.96433571  0.94186773    -0.46500
H361        H  0.13264512  0.91164713  0.93202714     0.07300
C362        C  0.15565723  0.99828920  0.57692497     0.43000
C363        C  0.94780358  0.86544014  0.94264055    -0.06000
Co364      Co  0.05898783  0.93181991  0.00173132     0.73800
N365        N  0.12951903  0.03415454  0.93617435    -0.46200
C366        C  0.84847570  0.00220571  0.58325504     0.43200
N367        N  0.03556981  0.86696134  0.56545703    -0.46200
Co368      Co  0.06690287  0.06006087  0.49980788     0.73900
C369        C  0.05154286  0.13110594  0.56230745    -0.06500
C370        C  0.86689794  0.04809514  0.94209127    -0.06100
N371        N  0.96932864  0.89909800  0.54122807    -0.25600
N372        N  0.96075767  0.13420232  0.94088845    -0.46400
H373        H  0.86311188  0.08509447  0.57303212     0.07300
C374        C  0.13232901  0.95383348  0.56270320    -0.06500
Cl375      Cl  0.99893536  0.99951093  0.50213105    -0.49500
C376        C  0.14613880  0.99394680  0.91908253     0.43000
H377        H  0.91319723  0.86385885  0.57278906     0.07200
N378        N  0.13732596  0.03744757  0.55956806    -0.46200
C379        C  0.99144550  0.54413788  0.73431639     0.02700
C380        C  0.99189520  0.54194427  0.77115317     0.02600
C381        C  0.99473087  0.49566911  0.78772819    -0.17900
C382        C  0.99678505  0.45170337  0.76856294     0.02700
C383        C  0.99593912  0.45377338  0.73208851     0.02600
C384        C  0.99390323  0.49978220  0.71530067    -0.17900
H385        H  0.99435772  0.50105518  0.68715763     0.04700
H386        H  0.99521661  0.49381388  0.81586142     0.04700
C387        C  0.54304209  0.99378460  0.77163516     0.02700
C388        C  0.54495148  0.99274363  0.73489371     0.02600
C389        C  0.50074892  0.99480034  0.71587367    -0.17900
C390        C  0.45472049  0.99860771  0.73241594     0.02700
C391        C  0.45234211  0.99975823  0.76910119     0.02600
C392        C  0.49668557  0.99699868  0.78819646    -0.17900
H393        H  0.49515167  0.99796676  0.81631852     0.04700
H394        H  0.50224288  0.99424282  0.68772882     0.04700
C395        C  0.28681753  0.01738998  0.61013132    -0.22100
C396        C  0.28115801  0.00379880  0.64500855     0.09900
C397        C  0.23421013  0.98915353  0.65757913     0.10300
C398        C  0.19385664  0.98730408  0.63459365    -0.17000
C399        C  0.19950761  0.00047841  0.59958561    -0.27400
C400        C  0.24661396  0.01564385  0.58709367     0.18600
C401        C  0.32552189  0.00235499  0.66743807     0.12600
C402        C  0.22692783  0.97559775  0.69521433    -0.11800
H403        H  0.15765408  0.97587955  0.64400318     0.12900
C404        C  0.25641608  0.02842064  0.54955813    -0.22600
H405        H  0.32318019  0.02822825  0.60064026     0.08500
C406        C  0.35415466  0.95906741  0.67005498     0.04900
C407        C  0.39613447  0.95913633  0.69145058    -0.19800
C408        C  0.40990105  0.00143016  0.71035635    -0.12100
C409        C  0.38153683  0.04508390  0.70731126     0.13600
C410        C  0.33934484  0.04482082  0.68602353    -0.22500
C411        C  0.34031287  0.91288340  0.65026641    -0.05600
H412        H  0.41821585  0.92591994  0.69371692     0.15100
C413        C  0.39527853  0.09272961  0.72534476    -0.15800
H414        H  0.31734781  0.07807812  0.68360663     0.09400
H415        H  0.28609183  0.00420045  0.53931718     0.07300
H416        H  0.26893304  0.06758670  0.54758246     0.08500
H417        H  0.22362207  0.02333792  0.53261995     0.07500
H418        H  0.23702345  0.00764827  0.71188262     0.02400
H419        H  0.25074362  0.94375748  0.70215117     0.02900
H420        H  0.18784191  0.96515557  0.70080873     0.06400
H421        H  0.36669625  0.88234140  0.65530279     0.05400
H422        H  0.34044916  0.92076620  0.62196783    -0.00400
H423        H  0.30276452  0.90004217  0.65808586     0.01100
H424        H  0.39943450  0.12274529  0.70581062     0.04700
H425        H  0.43069020  0.09046828  0.73975169     0.06700
H426        H  0.36551590  0.10284333  0.74387570     0.07600
C427        C  0.22996113  0.02713510  0.84280069    -0.22100
C428        C  0.27132973  0.99777532  0.85007298     0.09900
C429        C  0.27112778  0.96708548  0.87975477     0.10300
C430        C  0.22900158  0.96550560  0.90107727    -0.17000
C431        C  0.18761293  0.99503491  0.89404328    -0.27400
C432        C  0.18800658  0.02625153  0.86445506     0.18600
C433        C  0.31520366  0.00040921  0.82692971     0.12600
C434        C  0.31594563  0.93711985  0.88948482    -0.11800
H435        H  0.22902493  0.94223781  0.92403468     0.12900
C436        C  0.14461503  0.05808598  0.85439041    -0.22600
H437        H  0.23039149  0.05079604  0.82003482     0.08500
C438        C  0.32314530  0.96497614  0.80069081     0.04900
C439        C  0.36795216  0.96581584  0.78211646    -0.19800
C440        C  0.40416365  0.00262092  0.78807699    -0.12100
C441        C  0.39438041  0.04011081  0.81288755     0.13600
C442        C  0.35048757  0.03786780  0.83240598    -0.22500
C443        C  0.28427729  0.92645108  0.79229680    -0.05600
H444        H  0.37506284  0.93708458  0.76320264     0.15100
C445        C  0.42859336  0.08363061  0.81909091    -0.15800
H446        H  0.34370999  0.06561363  0.85214437     0.09400
H447        H  0.13241200  0.04836057  0.82769913     0.07300
H448        H  0.15600447  0.09767839  0.85483179     0.08500
H449        H  0.11216232  0.05330430  0.87169972     0.07500
H450        H  0.34822253  0.96220802  0.89355817     0.02400
H451        H  0.32479884  0.91051469  0.86851316     0.02900
H452        H  0.30982608  0.91575201  0.91379151     0.06400
H453        H  0.29611734  0.90200384  0.77071215     0.05400
H454        H  0.24948364  0.94499705  0.78432597    -0.00400
H455        H  0.27672248  0.90295539  0.81536745     0.01100
H456        H  0.40777338  0.11854360  0.81535519     0.04700
H457        H  0.46054423  0.08498197  0.80109619     0.06700
H458        H  0.44279486  0.08237384  0.84613491     0.07600
C459        C  0.66938435  0.95488134  0.69614541    -0.22100
C460        C  0.68023018  0.99643781  0.67560125     0.09900
C461        C  0.64698507  0.03643044  0.67474947     0.10300
C462        C  0.60369118  0.03417658  0.69479628    -0.17000
C463        C  0.59238393  0.99251506  0.71525703    -0.27400
C464        C  0.62545774  0.95203615  0.71564953     0.18600
C465        C  0.72461428  0.99603609  0.65304698     0.12600
C466        C  0.65683846  0.08108718  0.65221103    -0.11800
H467        H  0.57817003  0.06498076  0.69434559     0.12900
C468        C  0.61480500  0.90467715  0.73504686    -0.22600
H469        H  0.69466309  0.92386696  0.69613338     0.08500
C470        C  0.77049262  0.01590591  0.66403788     0.04900
C471        C  0.81026239  0.01802131  0.64049227    -0.19800
C472        C  0.80516240  0.99996818  0.60652074    -0.12100
C473        C  0.75914263  0.97949898  0.59572066     0.13600
C474        C  0.71962977  0.97758070  0.61928473    -0.22500
C475        C  0.77732664  0.03456499  0.70057450    -0.05600
H476        H  0.84563376  0.03333265  0.64870779     0.15100
C477        C  0.74936224  0.96107803  0.55935693    -0.15800
H478        H  0.68409792  0.96267146  0.61097818     0.09400
H479        H  0.64370694  0.89893231  0.75515337     0.07300
H480        H  0.61536453  0.87306238  0.71664775     0.08500
H481        H  0.57807378  0.90444047  0.74784211     0.07500
H482        H  0.65906778  0.06965094  0.62457775     0.02400
H483        H  0.69236892  0.09892521  0.65989571     0.02900
H484        H  0.62701296  0.10899272  0.65458596     0.06400
H485        H  0.81560351  0.04861852  0.70501796     0.05400
H486        H  0.77005011  0.00402718  0.71927072    -0.00400
H487        H  0.75116370  0.06518291  0.70576902     0.01100
H488        H  0.74068115  0.92083053  0.56014310     0.04700
H489        H  0.78067637  0.96722644  0.54130450     0.06700
H490        H  0.71704617  0.98087751  0.54831924     0.07600
C491        C  0.64052448  0.96284902  0.84001473    -0.22100
C492        C  0.67528194  0.00074948  0.83437641     0.09900
C493        C  0.66744048  0.03544907  0.80759916     0.10300
C494        C  0.62385882  0.03244462  0.78781497    -0.17000
C495        C  0.58887924  0.99432286  0.79319555    -0.27400
C496        C  0.59778174  0.95861834  0.81947588     0.18600
C497        C  0.71940831  0.00339111  0.85714181     0.12600
C498        C  0.70520498  0.07529291  0.79973710    -0.11800
H499        H  0.61695117  0.06015857  0.76806824     0.12900
C500        C  0.56405578  0.91483479  0.82614073    -0.22600
H501        H  0.64712242  0.93598016  0.86042528     0.08500
C502        C  0.71982253  0.03297974  0.88728372     0.04900
C503        C  0.76213706  0.03365993  0.90845891    -0.19800
C504        C  0.80335636  0.00419689  0.90076464    -0.12100
C505        C  0.80281147  0.97441124  0.87056084     0.13600
C506        C  0.76073132  0.97445950  0.84909741    -0.22500
C507        C  0.67508518  0.06261565  0.89760623    -0.05600
H508        H  0.76243497  0.05613734  0.93176185     0.15100
C509        C  0.84616550  0.94319198  0.85963145    -0.15800
H510        H  0.76009197  0.95172601  0.82590957     0.09400
H511        H  0.54811536  0.91763476  0.85263893     0.07300
H512        H  0.58575546  0.88016297  0.82434565     0.08500
H513        H  0.53332980  0.91156851  0.80722666     0.07500
H514        H  0.74105021  0.05803309  0.79273657     0.02400
H515        H  0.71072760  0.09934108  0.82276193     0.02900
H516        H  0.69344447  0.09900908  0.77768126     0.06400
H517        H  0.68144284  0.08324181  0.92216026     0.05400
H518        H  0.64285549  0.03739213  0.90148769    -0.00400
H519        H  0.66601651  0.08982845  0.87701541     0.01100
H520        H  0.83481641  0.90359026  0.85922061     0.04700
H521        H  0.87873956  0.94715311  0.87692275     0.06700
H522        H  0.85813735  0.95426637  0.83313102     0.07600
C523        C  0.02652377  0.28288536  0.61514557    -0.22100
C524        C  0.00865648  0.27681646  0.64902724     0.09900
C525        C  0.99139099  0.22997294  0.66012995     0.10300
C526        C  0.99175716  0.19015227  0.63672678    -0.17000
C527        C  0.00944528  0.19625755  0.60274503    -0.27400
C528        C  0.02684852  0.24329183  0.59168555     0.18600
C529        C  0.00583283  0.32088811  0.67163492     0.12600
C530        C  0.97321117  0.22204075  0.69671419    -0.11800
H531        H  0.97849517  0.15402400  0.64501206     0.12900
C532        C  0.04416465  0.25380643  0.55514766    -0.22600
H533        H  0.03920309  0.31916339  0.60669958     0.08500
C534        C  0.04814186  0.34049810  0.68835345     0.04900
C535        C  0.04384864  0.38408237  0.70786543    -0.19800
C536        C  0.99813500  0.40804323  0.71111761    -0.12100
C537        C  0.95549746  0.38756369  0.69514927     0.13600
C538        C  0.96003644  0.34442065  0.67529124    -0.22500
C539        C  0.09753809  0.31519784  0.68582479    -0.05600
H540        H  0.07620237  0.39963733  0.72061626     0.15100
C541        C  0.90467098  0.40966647  0.69897751    -0.15800
H542        H  0.92760352  0.32896030  0.66253438     0.09400
H543        H  0.08373507  0.26539894  0.55560993     0.07300
H544        H  0.02188244  0.28432020  0.54394440     0.08500
H545        H  0.04024191  0.22172184  0.53749698     0.07500
H546        H  0.94073084  0.24590902  0.70183128     0.02400
H547        H  0.00321434  0.23152304  0.71535792     0.02900
H548        H  0.96184182  0.18296183  0.70130310     0.06400
H549        H  0.12654042  0.33498131  0.70101379     0.05400
H550        H  0.10972187  0.31386032  0.65832152    -0.00400
H551        H  0.09427372  0.27686756  0.69608748     0.01100
H552        H  0.89033454  0.42037403  0.67303231     0.04700
H553        H  0.90429079  0.44285494  0.71585087     0.06700
H554        H  0.87917621  0.38175095  0.71061657     0.08300
C555        C  0.97634937  0.27737063  0.88142608    -0.22100
C556        C  0.99909188  0.27149404  0.84904122     0.09900
C557        C  0.02181901  0.22613979  0.84079264     0.10300
C558        C  0.02135552  0.18762209  0.86540911    -0.17000
C559        C  0.99832506  0.19343168  0.89785240    -0.27400
C560        C  0.97587613  0.23921099  0.90608784     0.18600
C561        C  0.99956806  0.31438781  0.82500269     0.12600
C562        C  0.04584845  0.21827934  0.80596338    -0.11800
H563        H  0.03877850  0.15266608  0.85925158     0.12900
C564        C  0.95314190  0.25056156  0.94094499    -0.22600
H565        H  0.95962505  0.31261869  0.88779139     0.08500
C566        C  0.95611018  0.32959763  0.80773552     0.04900
C567        C  0.95648805  0.37425062  0.78907291    -0.19800
C568        C  0.99940867  0.40375986  0.78716568    -0.12100
C569        C  0.04358638  0.38734379  0.80306115     0.13600
C570        C  0.04298543  0.34296584  0.82203889    -0.22500
C571        C  0.90941723  0.29871260  0.80907206    -0.05600
H572        H  0.92295860  0.38667942  0.77636790     0.15100
C573        C  0.09185953  0.41557763  0.80043468    -0.15800
H574        H  0.07635824  0.33107652  0.83523169     0.09400
H575        H  0.91298241  0.25792165  0.93763029     0.07300
H576        H  0.97120694  0.28411889  0.95199074     0.08500
H577        H  0.95758336  0.22072741  0.96031853     0.07500
H578        H  0.07688909  0.24501006  0.80240933     0.02400
H579        H  0.01812974  0.22382566  0.78502464     0.02900
H580        H  0.06091547  0.18028983  0.80346515     0.06400
H581        H  0.87924149  0.31538437  0.79342228     0.05400
H582        H  0.89619820  0.29534401  0.83625681    -0.00400
H583        H  0.91692107  0.26122170  0.79859845     0.01100
H584        H  0.10450894  0.42638952  0.82680941     0.04700
H585        H  0.08909727  0.44958721  0.78444308     0.06700
H586        H  0.12030665  0.39158828  0.78837807     0.07600
C587        C  0.95790358  0.64615644  0.66997756    -0.22100
C588        C  0.99692872  0.67984229  0.67508634     0.09900
C589        C  0.03220339  0.67068970  0.70135659     0.10300
C590        C  0.02935471  0.62631590  0.72038417    -0.17000
C591        C  0.99074970  0.59193511  0.71490433    -0.27400
C592        C  0.95376577  0.60279188  0.68988007     0.18600
C593        C  0.99931885  0.72463228  0.65276216     0.12600
C594        C  0.07198498  0.70819207  0.70993664    -0.11800
H595        H  0.05758269  0.61828014  0.73956412     0.12900
C596        C  0.90870316  0.57046125  0.68399668    -0.22600
H597        H  0.93011910  0.65401706  0.65040210     0.08500
C598        C  0.03047625  0.72704679  0.62335989     0.04900
C599        C  0.02991092  0.76950182  0.60226497    -0.19800
C600        C  0.99772907  0.80895610  0.60911847    -0.12100
C601        C  0.96650020  0.80643511  0.63870655     0.13600
C602        C  0.96759010  0.76413890  0.65997704    -0.22500
C603        C  0.06251929  0.68392980  0.61322443    -0.05600
H604        H  0.05333909  0.77098651  0.57942110     0.15100
C605        C  0.93258556  0.84780983  0.64940434    -0.15800
H606        H  0.94348679  0.76194375  0.68246705     0.09400
H607        H  0.90895904  0.55615939  0.65698445     0.07300
H608        H  0.87473459  0.59274762  0.68788210     0.08500
H609        H  0.90631385  0.53860474  0.70202850     0.07500
H610        H  0.05452890  0.74346660  0.71795562     0.02400
H611        H  0.09592661  0.71527437  0.68706890     0.02900
H612        H  0.09595965  0.69540569  0.73156691     0.06400
H613        H  0.08367101  0.69162228  0.58904470     0.05400
H614        H  0.03888563  0.65071942  0.60870915    -0.00400
H615        H  0.08954200  0.67561873  0.63405281     0.01100
H616        H  0.89342509  0.83513752  0.64747828     0.04700
H617        H  0.93742232  0.88178390  0.63366506     0.06700
H618        H  0.94046708  0.85824892  0.67674809     0.07600
C619        C  0.97188733  0.71080504  0.89289540    -0.22100
C620        C  0.99272857  0.71509525  0.85970943     0.09900
C621        C  0.01310548  0.76082771  0.84887647     0.10300
C622        C  0.01255505  0.80134429  0.87173146    -0.17000
C623        C  0.99127824  0.79729423  0.90485194    -0.27400
C624        C  0.97114131  0.75120947  0.91577447     0.18600
C625        C  0.99311936  0.67101139  0.83684341     0.12600
C626        C  0.03486187  0.76686341  0.81308520    -0.11800
H627        H  0.02810895  0.83660421  0.86353032     0.12900
C628        C  0.95011092  0.74256958  0.95157403    -0.22600
H629        H  0.95664950  0.67541978  0.90115954     0.08500
C630        C  0.03304014  0.63762194  0.83708709     0.04900
C631        C  0.03180301  0.59644201  0.81491436    -0.19800
C632        C  0.99086591  0.58701418  0.79327941    -0.12100
C633        C  0.94984891  0.61940042  0.79430799     0.13600
C634        C  0.95208784  0.66166405  0.81546009    -0.22500
C635        C  0.07647496  0.64504782  0.86115764    -0.05600
H636        H  0.06277462  0.57111210  0.81463277     0.15100
C637        C  0.90236485  0.60947599  0.77486976    -0.15800
H638        H  0.92098106  0.68682396  0.81603612     0.09400
H639        H  0.97015166  0.71165075  0.96424064     0.07300
H640        H  0.91027065  0.73238520  0.94947591     0.08500
H641        H  0.95361824  0.77511871  0.96883964     0.07500
H642        H  0.00604033  0.75886106  0.79323765     0.02400
H643        H  0.06611034  0.74087360  0.80955703     0.02900
H644        H  0.04902755  0.80508408  0.80868814     0.06400
H645        H  0.10435863  0.61531015  0.85819795     0.05400
H646        H  0.06341315  0.64477260  0.88849776    -0.00400
H647        H  0.09492641  0.68105501  0.85560214     0.01100
H648        H  0.87087808  0.60877844  0.79343315     0.04700
H649        H  0.90222909  0.57340925  0.76127988     0.06700
H650        H  0.89618638  0.63935543  0.75555757     0.07600
loop_ 
_geom_bond_atom_site_label_1 
_geom_bond_atom_site_label_2 
_geom_bond_distance 
_geom_bond_site_symmetry_2 
_ccdc_geom_bond_type 
C1           N19   1.350   1_655  A
C1           C38   1.459       .  S
C1          C298   1.476       .  S
N2           N19   1.325       .  A
N2           N24   1.320   1_455  A
N2          Co39   2.089       .  S
C3           N28   1.343       .  A
C3           C41   1.461       .  S
C3           H48   1.081       .  S
H4           C45   1.082       .  S
C5           N29   1.341       .  A
C5            C9   1.457   1_455  S
C5           H34   1.082       .  S
Co6          N24   2.083       .  S
Co6          N14   2.094       .  S
Co6         N371   2.085       .  S
Co6         N347   2.078       .  S
Co6        Cl375   2.448       .  S
N7           C45   1.339       .  A
N7           N14   1.321   1_545  A
N7         Co333   2.078       .  S
Co8          N28   2.089       .  S
Co8          N15   2.085       .  S
Co8         N332   2.078   1_554  S
Co8         N336   2.089   1_554  S
Co8         Cl50   2.454   1_545  S
C9           N47   1.350       .  A
C9          C234   1.477       .  S
N10          N17   1.320   1_545  A
N10          N40   1.325       .  A
N10        Co368   2.084       .  S
N11          N29   1.320   1_655  A
N11          N47   1.325       .  A
N11        Co333   2.089       .  S
N12          C41   1.347   1_565  A
N12          N22   1.323       .  A
H13          C38   1.082       .  S
N14          N35   1.326       .  A
N15          N33   1.320   1_655  A
N15          N20   1.325       .  A
C16          N20   1.349   1_455  A
C16          C44   1.457       .  S
C16         C202   1.470       .  S
N17          C32   1.340       .  A
N17         Co39   2.088       .  S
C18          N46   1.341       .  A
C18          C21   1.462       .  S
C18          H52   1.082       .  S
C21          N42   1.353   1_655  A
C21         C275   1.483       .  S
N22          N28   1.320   1_565  A
N22        Co331   2.078       .  S
N23          C49   1.342       .  A
N23          N25   1.320   1_565  A
N23        Co364   2.087       .  S
N24          C38   1.341       .  A
N25          N53   1.324       .  A
N25         Co43   2.079   1_554  S
H26          C49   1.081       .  S
H27          C44   1.081       .  S
N29        Co368   2.081       .  S
N30          N42   1.325       .  A
N30          N46   1.320   1_455  A
N30        Co364   2.092       .  S
C31          N35   1.352   1_545  A
C31          C45   1.456       .  S
C31         C179   1.476       .  S
C32          C51   1.461       .  S
C32          H36   1.081       .  S
N33          C44   1.340       .  A
N33         Co43   2.082   1_554  S
C37          N53   1.348   1_565  A
C37          C49   1.458       .  S
C37          C74   1.471   1_565  S
Co39        N348   2.087       .  S
Co39        N355   2.092       .  S
Co39       Cl375   2.452   1_455  S
N40          C51   1.350   1_545  A
C41         C147   1.474   1_545  S
Co43        N335   2.084       .  S
Co43        N354   2.081       .  S
Co43        Cl50   2.449   1_446  S
N46        Co331   2.085       .  S
Cl50       Co331   2.448       .  S
Cl50       Co364   2.452   1_655  S
C51         C106   1.477       .  S
C54         C266   1.491       .  S
C54          C55   1.420       .  A
C54          C59   1.407       .  A
C55         C307   1.487       .  S
C55          C56   1.405       .  A
C56          H61   1.085       .  S
C56          C57   1.400       .  A
C57         C243   1.481       .  S
C57          C58   1.406       .  A
C58         C211   1.478       .  S
C58          C59   1.401       .  A
C59          H60   1.084       .  S
C62         C170   1.489       .  S
C62          C63   1.416       .  A
C62          C67   1.407       .  A
C63         C138   1.487       .  S
C63          C64   1.401       .  A
C64          H69   1.085       .  S
C64          C65   1.400       .  A
C65          C83   1.480   1_565  S
C65          C66   1.415       .  A
C66         C115   1.494   1_565  S
C66          C67   1.407       .  A
C67          H68   1.084       .  S
C70          H80   1.085       .  S
C70          C71   1.400       .  A
C70          C75   1.402       .  A
C71          C76   1.477       .  S
C71          C72   1.410   1_545  A
C72          C73   1.404       .  A
C72          C77   1.507       .  S
C73          H78   1.084       .  S
C73          C74   1.402   1_565  A
C74          C75   1.416       .  A
C75          C79   1.509       .  S
C76          C81   1.410   1_545  A
C76          C85   1.401       .  A
C77          H93   1.110   1_565  S
C77          H94   1.110       .  S
C77          H95   1.111       .  S
C79          H90   1.111       .  S
C79          H91   1.110       .  S
C79          H92   1.107       .  S
C81          C82   1.400       .  A
C81          C86   1.507       .  S
C82          H87   1.084       .  S
C82          C83   1.403   1_565  A
C83          C84   1.415       .  A
C84          C85   1.403       .  A
C84          C88   1.507       .  S
C85          H89   1.084       .  S
C86          H96   1.111       .  S
C86          H97   1.110       .  S
C86          H98   1.110       .  S
C88          H99   1.110       .  S
C88         H100   1.107       .  S
C88         H101   1.110       .  S
C102        H112   1.084       .  S
C102        C103   1.402   1_545  A
C102        C107   1.406       .  A
C103        C108   1.483   1_565  S
C103        C104   1.411       .  A
C104        C105   1.403       .  A
C104        C109   1.507       .  S
C105        H110   1.084       .  S
C105        C106   1.403       .  A
C106        C107   1.417   1_565  A
C107        C111   1.508       .  S
C108        C113   1.410   1_545  A
C108        C117   1.400       .  A
C109        H125   1.110       .  S
C109        H126   1.109       .  S
C109        H127   1.111       .  S
C111        H122   1.110       .  S
C111        H123   1.110       .  S
C111        H124   1.107       .  S
C113        C114   1.405       .  A
C113        C118   1.507       .  S
C114        H119   1.083       .  S
C114        C115   1.407   1_565  A
C115        C116   1.419       .  A
C116        C117   1.404       .  A
C116        C120   1.508       .  S
C117        H121   1.085       .  S
C118        H128   1.111       .  S
C118        H129   1.111       .  S
C118        H130   1.109       .  S
C120        H131   1.111       .  S
C120        H132   1.107       .  S
C120        H133   1.110       .  S
C134        H144   1.084       .  S
C134        C135   1.401       .  A
C134        C139   1.405       .  A
C135        C140   1.480       .  S
C135        C136   1.410   1_565  A
C136        C137   1.401       .  A
C136        C141   1.507       .  S
C137        H142   1.084       .  S
C137        C138   1.404   1_545  A
C138        C139   1.417       .  A
C139        C143   1.506       .  S
C140        C145   1.410   1_565  A
C140        C149   1.399       .  A
C141        H157   1.110       .  S
C141        H158   1.110       .  S
C141        H159   1.111       .  S
C143        H154   1.110       .  S
C143        H155   1.110       .  S
C143        H156   1.107       .  S
C145        C146   1.406       .  A
C145        C150   1.506       .  S
C146        H151   1.084       .  S
C146        C147   1.403   1_545  A
C147        C148   1.418       .  A
C148        C149   1.401       .  A
C148        C152   1.509       .  S
C149        H153   1.085       .  S
C150        H160   1.111       .  S
C150        H161   1.110       .  S
C150        H162   1.110       .  S
C152        H163   1.110       .  S
C152        H164   1.106       .  S
C152        H165   1.111       .  S
C166        H176   1.085       .  S
C166        C167   1.399   1_565  A
C166        C171   1.402       .  A
C167        C172   1.480       .  S
C167        C168   1.410       .  A
C168        C169   1.403       .  A
C168        C173   1.507       .  S
C169        H174   1.083       .  S
C169        C170   1.406   1_545  A
C170        C171   1.419       .  A
C171        C175   1.508       .  S
C172        C177   1.410       .  A
C172        C181   1.401   1_545  A
C173        H189   1.110       .  S
C173        H190   1.109       .  S
C173        H191   1.111       .  S
C175        H186   1.110       .  S
C175        H187   1.111       .  S
C175        H188   1.106       .  S
C177        C178   1.403       .  A
C177        C182   1.507       .  S
C178        H183   1.084       .  S
C178        C179   1.404       .  A
C179        C180   1.415   1_545  A
C180        C181   1.404       .  A
C180        C184   1.508       .  S
C181        H185   1.084       .  S
C182        H192   1.111       .  S
C182        H193   1.110       .  S
C182        H194   1.109       .  S
C184        H195   1.110       .  S
C184        H196   1.107       .  S
C184        H197   1.110       .  S
C198        H208   1.085       .  S
C198        C199   1.400       .  A
C198        C203   1.401       .  A
C199        C204   1.478       .  S
C199        C200   1.411   1_455  A
C200        C201   1.404       .  A
C200        C205   1.506       .  S
C201        H206   1.084       .  S
C201        C202   1.402   1_655  A
C202        C203   1.416       .  A
C203        C207   1.509       .  S
C204        C209   1.410       .  A
C204        C213   1.401   1_455  A
C205        H221   1.110       .  S
C205        H222   1.111   1_655  S
C205        H223   1.111       .  S
C207        H218   1.110       .  S
C207        H219   1.111       .  S
C207        H220   1.106       .  S
C209        C210   1.403       .  A
C209        C214   1.506       .  S
C210        H215   1.084       .  S
C210        C211   1.403   1_455  A
C211        C212   1.413       .  A
C212        C213   1.401       .  A
C212        C216   1.507       .  S
C213        H217   1.084       .  S
C214        H224   1.111       .  S
C214        H225   1.110       .  S
C214        H226   1.110       .  S
C216        H227   1.110       .  S
C216        H228   1.108       .  S
C216        H229   1.111       .  S
C230        H240   1.085       .  S
C230        C231   1.400       .  A
C230        C235   1.401       .  A
C231        C236   1.482       .  S
C231        C232   1.411   1_655  A
C232        C233   1.407       .  A
C232        C237   1.506       .  S
C233        H238   1.084       .  S
C233        C234   1.405   1_455  A
C234        C235   1.417       .  A
C235        C239   1.509       .  S
C236        C241   1.411       .  A
C236        C245   1.402   1_655  A
C237        H253   1.110       .  S
C237        H254   1.110       .  S
C237        H255   1.111       .  S
C239        H250   1.110       .  S
C239        H251   1.111       .  S
C239        H252   1.105       .  S
C241        C242   1.403       .  A
C241        C246   1.506       .  S
C242        H247   1.084       .  S
C242        C243   1.402       .  A
C243        C244   1.414   1_655  A
C244        C245   1.403       .  A
C244        C248   1.507       .  S
C245        H249   1.084       .  S
C246        H256   1.111       .  S
C246        H257   1.109       .  S
C246        H258   1.110       .  S
C248        H259   1.110       .  S
C248        H260   1.108       .  S
C248        H261   1.111       .  S
C262        H272   1.085       .  S
C262        C263   1.400       .  A
C262        C267   1.403       .  A
C263        C268   1.484       .  S
C263        C264   1.412   1_655  A
C264        C265   1.405       .  A
C264        C269   1.507       .  S
C265        H270   1.084       .  S
C265        C266   1.406   1_455  A
C266        C267   1.419       .  A
C267        C271   1.508       .  S
C268        C273   1.412   1_655  A
C268        C277   1.401       .  A
C269        H285   1.110       .  S
C269        H286   1.108       .  S
C269        H287   1.111       .  S
C271        H282   1.110       .  S
C271        H283   1.111       .  S
C271        H284   1.106       .  S
C273        C274   1.405       .  A
C273        C278   1.508       .  S
C274        H279   1.084       .  S
C274        C275   1.405   1_455  A
C275        C276   1.419       .  A
C276        C277   1.405       .  A
C276        C280   1.508       .  S
C277        H281   1.084       .  S
C278        H288   1.111       .  S
C278        H289   1.110       .  S
C278        H290   1.108       .  S
C280        H291   1.110       .  S
C280        H292   1.106       .  S
C280        H293   1.111       .  S
C294        H304   1.085       .  S
C294        C295   1.401       .  A
C294        C299   1.404       .  A
C295        C300   1.482       .  S
C295        C296   1.411   1_655  A
C296        C297   1.405       .  A
C296        C301   1.506       .  S
C297        H302   1.084       .  S
C297        C298   1.403   1_455  A
C298        C299   1.417       .  A
C299        C303   1.508       .  S
C300        C305   1.410   1_655  A
C300        C309   1.401       .  A
C301        H317   1.110       .  S
C301        H318   1.110       .  S
C301        H319   1.111       .  S
C303        H314   1.111       .  S
C303        H315   1.110       .  S
C303        H316   1.106       .  S
C305        C306   1.403       .  A
C305        C310   1.506       .  S
C306        H311   1.084       .  S
C306        C307   1.405   1_455  A
C307        C308   1.417       .  A
C308        C309   1.404       .  A
C308        C312   1.506       .  S
C309        H313   1.084       .  S
C310        H320   1.111       .  S
C310        H321   1.110       .  S
C310        H322   1.110       .  S
C312        H323   1.110       .  S
C312        H324   1.106       .  S
C312        H325   1.110       .  S
C326        N344   1.350   1_655  A
C326        C363   1.459       .  S
C326        C623   1.476       .  S
N327        N344   1.325       .  A
N327        N349   1.320   1_455  A
N327       Co364   2.089   1_556  S
C328        N353   1.343       .  A
C328        C366   1.461       .  S
C328        H373   1.081       .  S
H329        C370   1.082       .  S
C330        N354   1.341       .  A
C330        C334   1.457   1_455  S
C330        H359   1.082       .  S
Co331       N349   2.083   1_554  S
Co331       N339   2.094   1_554  S
N332        C370   1.339       .  A
N332        N339   1.321   1_545  A
Co333       N353   2.089       .  S
Co333       N340   2.085       .  S
Co333      Cl375   2.454   1_545  S
C334        N372   1.350       .  A
C334        C559   1.477       .  S
N335        N342   1.320   1_545  A
N335        N365   1.325       .  A
N336        N354   1.320   1_655  A
N336        N372   1.325       .  A
N337        C366   1.347   1_565  A
N337        N347   1.323       .  A
H338        C363   1.082       .  S
N339        N360   1.326       .  A
N340        N358   1.320   1_655  A
N340        N345   1.325       .  A
C341        N345   1.349   1_455  A
C341        C369   1.457       .  S
C341        C527   1.470       .  S
N342        C357   1.340       .  A
N342       Co364   2.088   1_556  S
C343        N371   1.341       .  A
C343        C346   1.462       .  S
C343        H377   1.082       .  S
C346        N367   1.353   1_655  A
C346        C600   1.483       .  S
N347        N353   1.320   1_565  A
N348        C374   1.342       .  A
N348        N350   1.320   1_565  A
N349        C363   1.341       .  A
N350        N378   1.324       .  A
N350       Co368   2.079       .  S
H351        C374   1.081       .  S
H352        C369   1.081       .  S
N355        N367   1.325       .  A
N355        N371   1.320   1_455  A
C356        N360   1.352   1_545  A
C356        C370   1.456       .  S
C356        C504   1.476       .  S
C357        C376   1.461       .  S
C357        H361   1.081       .  S
N358        C369   1.340       .  A
N358       Co368   2.082       .  S
C362        N378   1.348   1_565  A
C362        C374   1.458       .  S
C362        C399   1.471   1_565  S
N365        C376   1.350   1_545  A
C366        C472   1.474   1_545  S
Co368      Cl375   2.449   1_445  S
C376        C431   1.477       .  S
C379        C591   1.491       .  S
C379        C380   1.420       .  A
C379        C384   1.407       .  A
C380        C632   1.487       .  S
C380        C381   1.405       .  A
C381        H386   1.085       .  S
C381        C382   1.400       .  A
C382        C568   1.481       .  S
C382        C383   1.406       .  A
C383        C536   1.478       .  S
C383        C384   1.401       .  A
C384        H385   1.084       .  S
C387        C495   1.489       .  S
C387        C388   1.416       .  A
C387        C392   1.407       .  A
C388        C463   1.487       .  S
C388        C389   1.401       .  A
C389        H394   1.085       .  S
C389        C390   1.400       .  A
C390        C408   1.480   1_565  S
C390        C391   1.415       .  A
C391        C440   1.494   1_565  S
C391        C392   1.407       .  A
C392        H393   1.084       .  S
C395        H405   1.085       .  S
C395        C396   1.400       .  A
C395        C400   1.402       .  A
C396        C401   1.477       .  S
C396        C397   1.410   1_545  A
C397        C398   1.404       .  A
C397        C402   1.507       .  S
C398        H403   1.084       .  S
C398        C399   1.402   1_565  A
C399        C400   1.416       .  A
C400        C404   1.509       .  S
C401        C406   1.410   1_545  A
C401        C410   1.401       .  A
C402        H418   1.110   1_565  S
C402        H419   1.110       .  S
C402        H420   1.111       .  S
C404        H415   1.111       .  S
C404        H416   1.110       .  S
C404        H417   1.107       .  S
C406        C407   1.400       .  A
C406        C411   1.507       .  S
C407        H412   1.084       .  S
C407        C408   1.403   1_565  A
C408        C409   1.415       .  A
C409        C410   1.403       .  A
C409        C413   1.507       .  S
C410        H414   1.084       .  S
C411        H421   1.111       .  S
C411        H422   1.110       .  S
C411        H423   1.110       .  S
C413        H424   1.110       .  S
C413        H425   1.107       .  S
C413        H426   1.110       .  S
C427        H437   1.084       .  S
C427        C428   1.402   1_545  A
C427        C432   1.406       .  A
C428        C433   1.483   1_565  S
C428        C429   1.411       .  A
C429        C430   1.403       .  A
C429        C434   1.507       .  S
C430        H435   1.084       .  S
C430        C431   1.403       .  A
C431        C432   1.417   1_565  A
C432        C436   1.508       .  S
C433        C438   1.410   1_545  A
C433        C442   1.400       .  A
C434        H450   1.110       .  S
C434        H451   1.109       .  S
C434        H452   1.111       .  S
C436        H447   1.110       .  S
C436        H448   1.110       .  S
C436        H449   1.107       .  S
C438        C439   1.405       .  A
C438        C443   1.507       .  S
C439        H444   1.083       .  S
C439        C440   1.407   1_565  A
C440        C441   1.419       .  A
C441        C442   1.404       .  A
C441        C445   1.508       .  S
C442        H446   1.085       .  S
C443        H453   1.111       .  S
C443        H454   1.111       .  S
C443        H455   1.109       .  S
C445        H456   1.111       .  S
C445        H457   1.107       .  S
C445        H458   1.110       .  S
C459        H469   1.084       .  S
C459        C460   1.401       .  A
C459        C464   1.405       .  A
C460        C465   1.480       .  S
C460        C461   1.410   1_565  A
C461        C462   1.401       .  A
C461        C466   1.507       .  S
C462        H467   1.084       .  S
C462        C463   1.404   1_545  A
C463        C464   1.417       .  A
C464        C468   1.506       .  S
C465        C470   1.410   1_565  A
C465        C474   1.399       .  A
C466        H482   1.110       .  S
C466        H483   1.110       .  S
C466        H484   1.111       .  S
C468        H479   1.110       .  S
C468        H480   1.110       .  S
C468        H481   1.107       .  S
C470        C471   1.406       .  A
C470        C475   1.506       .  S
C471        H476   1.084       .  S
C471        C472   1.403   1_545  A
C472        C473   1.418       .  A
C473        C474   1.401       .  A
C473        C477   1.509       .  S
C474        H478   1.085       .  S
C475        H485   1.111       .  S
C475        H486   1.110       .  S
C475        H487   1.110       .  S
C477        H488   1.110       .  S
C477        H489   1.106       .  S
C477        H490   1.111       .  S
C491        H501   1.085       .  S
C491        C492   1.399   1_565  A
C491        C496   1.402       .  A
C492        C497   1.480       .  S
C492        C493   1.410       .  A
C493        C494   1.403       .  A
C493        C498   1.507       .  S
C494        H499   1.083       .  S
C494        C495   1.406   1_545  A
C495        C496   1.419       .  A
C496        C500   1.508       .  S
C497        C502   1.410       .  A
C497        C506   1.401   1_545  A
C498        H514   1.110       .  S
C498        H515   1.109       .  S
C498        H516   1.111       .  S
C500        H511   1.110       .  S
C500        H512   1.111       .  S
C500        H513   1.106       .  S
C502        C503   1.403       .  A
C502        C507   1.507       .  S
C503        H508   1.084       .  S
C503        C504   1.404       .  A
C504        C505   1.415   1_545  A
C505        C506   1.404       .  A
C505        C509   1.508       .  S
C506        H510   1.084       .  S
C507        H517   1.111       .  S
C507        H518   1.110       .  S
C507        H519   1.109       .  S
C509        H520   1.110       .  S
C509        H521   1.107       .  S
C509        H522   1.110       .  S
C523        H533   1.085       .  S
C523        C524   1.400       .  A
C523        C528   1.401       .  A
C524        C529   1.478       .  S
C524        C525   1.411   1_455  A
C525        C526   1.404       .  A
C525        C530   1.506       .  S
C526        H531   1.084       .  S
C526        C527   1.402   1_655  A
C527        C528   1.416       .  A
C528        C532   1.509       .  S
C529        C534   1.410       .  A
C529        C538   1.401   1_455  A
C530        H546   1.110       .  S
C530        H547   1.111   1_655  S
C530        H548   1.111       .  S
C532        H543   1.110       .  S
C532        H544   1.111       .  S
C532        H545   1.106       .  S
C534        C535   1.403       .  A
C534        C539   1.506       .  S
C535        H540   1.084       .  S
C535        C536   1.403   1_455  A
C536        C537   1.413       .  A
C537        C538   1.401       .  A
C537        C541   1.507       .  S
C538        H542   1.084       .  S
C539        H549   1.111       .  S
C539        H550   1.110       .  S
C539        H551   1.110       .  S
C541        H552   1.110       .  S
C541        H553   1.108       .  S
C541        H554   1.111       .  S
C555        H565   1.085       .  S
C555        C556   1.400       .  A
C555        C560   1.401       .  A
C556        C561   1.482       .  S
C556        C557   1.411   1_655  A
C557        C558   1.407       .  A
C557        C562   1.506       .  S
C558        H563   1.084       .  S
C558        C559   1.405   1_455  A
C559        C560   1.417       .  A
C560        C564   1.509       .  S
C561        C566   1.411       .  A
C561        C570   1.402   1_655  A
C562        H578   1.110       .  S
C562        H579   1.110       .  S
C562        H580   1.111       .  S
C564        H575   1.110       .  S
C564        H576   1.111       .  S
C564        H577   1.105       .  S
C566        C567   1.403       .  A
C566        C571   1.506       .  S
C567        H572   1.084       .  S
C567        C568   1.402       .  A
C568        C569   1.414   1_655  A
C569        C570   1.403       .  A
C569        C573   1.507       .  S
C570        H574   1.084       .  S
C571        H581   1.111       .  S
C571        H582   1.109       .  S
C571        H583   1.110       .  S
C573        H584   1.110       .  S
C573        H585   1.108       .  S
C573        H586   1.111       .  S
C587        H597   1.085       .  S
C587        C588   1.400       .  A
C587        C592   1.403       .  A
C588        C593   1.484       .  S
C588        C589   1.412   1_655  A
C589        C590   1.405       .  A
C589        C594   1.507       .  S
C590        H595   1.084       .  S
C590        C591   1.406   1_455  A
C591        C592   1.419       .  A
C592        C596   1.508       .  S
C593        C598   1.412   1_655  A
C593        C602   1.401       .  A
C594        H610   1.110       .  S
C594        H611   1.108       .  S
C594        H612   1.111       .  S
C596        H607   1.110       .  S
C596        H608   1.111       .  S
C596        H609   1.106       .  S
C598        C599   1.405       .  A
C598        C603   1.508       .  S
C599        H604   1.084       .  S
C599        C600   1.405   1_455  A
C600        C601   1.419       .  A
C601        C602   1.405       .  A
C601        C605   1.508       .  S
C602        H606   1.084       .  S
C603        H613   1.111       .  S
C603        H614   1.110       .  S
C603        H615   1.108       .  S
C605        H616   1.110       .  S
C605        H617   1.106       .  S
C605        H618   1.111       .  S
C619        H629   1.085       .  S
C619        C620   1.401       .  A
C619        C624   1.404       .  A
C620        C625   1.482       .  S
C620        C621   1.411   1_655  A
C621        C622   1.405       .  A
C621        C626   1.506       .  S
C622        H627   1.084       .  S
C622        C623   1.403   1_455  A
C623        C624   1.417       .  A
C624        C628   1.508       .  S
C625        C630   1.410   1_655  A
C625        C634   1.401       .  A
C626        H642   1.110       .  S
C626        H643   1.110       .  S
C626        H644   1.111       .  S
C628        H639   1.111       .  S
C628        H640   1.110       .  S
C628        H641   1.106       .  S
C630        C631   1.403       .  A
C630        C635   1.506       .  S
C631        H636   1.084       .  S
C631        C632   1.405   1_455  A
C632        C633   1.417       .  A
C633        C634   1.404       .  A
C633        C637   1.506       .  S
C634        H638   1.084       .  S
C635        H645   1.111       .  S
C635        H646   1.110       .  S
C635        H647   1.110       .  S
C637        H648   1.110       .  S
C637        H649   1.106       .  S
C637        H650   1.110       .  S
