geometry optimzed in LAMMPS
_audit_creation_date              2020-12-01 
_audit_creation_method            'lammps2cif' 
_symmetry_space_group_name_H-M    'P1' 
_symmetry_Int_Tables_number       1 
_symmetry_cell_setting            triclinic 
loop_ 
_symmetry_equiv_pos_as_xyz 
  x,y,z 
_cell_length_a                    50.45084536 
_cell_length_b                    50.49622429031348 
_cell_length_c                    50.47321320474962 
_cell_angle_alpha                 90.08951555207791 
_cell_angle_beta                  90.01173593062927 
_cell_angle_gamma                 90.05535933611769 
loop_ 
_atom_site_label 
_atom_site_type_symbol 
_atom_site_fract_x 
_atom_site_fract_y 
_atom_site_fract_z 
_atom_site_charge 
C1          C  0.55530901  0.55680440  0.24244318     0.80100
N2          N  0.57498930  0.54324035  0.25473120    -0.78200
C3          C  0.58022677  0.54730246  0.28079086     0.82500
N4          N  0.56553973  0.56516774  0.29449170    -0.78200
C5          C  0.54571989  0.57887486  0.28258450     0.82600
N6          N  0.54065438  0.57438568  0.25656065    -0.79900
C7          C  0.42125552  0.39726671  0.73813409     0.80100
N8          N  0.43667080  0.37990008  0.72454900    -0.78200
C9          C  0.43181843  0.37479109  0.69859355     0.82500
N10         N  0.41160956  0.38747090  0.68623433    -0.78200
C11         C  0.39623841  0.40523818  0.69937800     0.82600
N12         N  0.40126748  0.41001702  0.72539895    -0.79900
C13         C  0.74660087  0.52252371  0.92796577     0.80100
N14         N  0.75824110  0.50732936  0.90902553    -0.78200
C15         C  0.78440312  0.51009968  0.90343845     0.82500
N16         N  0.79879142  0.52855531  0.91675908    -0.78200
C17         C  0.78760184  0.54392552  0.93579420     0.82600
N18         N  0.76138182  0.54073755  0.94127050    -0.79900
C19         C  0.40506241  0.72944151  0.92556490     0.80100
N20         N  0.41863200  0.74232973  0.90617233    -0.78200
C21         C  0.41577563  0.76888312  0.90268541     0.82500
N22         N  0.39952333  0.78256970  0.91923002    -0.78200
C23         C  0.38592442  0.77013174  0.93884871     0.82600
N24         N  0.38880561  0.74356041  0.94176801    -0.79900
C25         C  0.23433184  0.40383819  0.06684916     0.80100
N26         N  0.22350466  0.38277284  0.05392430    -0.78200
C27         C  0.19792401  0.37549453  0.05831103     0.82500
N28         N  0.18318413  0.38980530  0.07564743    -0.78200
C29         C  0.19360661  0.41074862  0.08892673     0.82600
N30         N  0.21918503  0.41760069  0.08431359    -0.79900
C31         C  0.54557010  0.21742091  0.05760338     0.80100
N32         N  0.56194715  0.20088496  0.04403812    -0.78200
C33         C  0.56435026  0.17500370  0.05109927     0.82500
N34         N  0.55003067  0.16580034  0.07191250    -0.78200
C35         C  0.53373864  0.18210988  0.08577034     0.82600
N36         N  0.53144179  0.20783814  0.07840921    -0.79900
Zn37       Zn  0.50471433  0.50911973  0.99854223     1.49700
Zn38       Zn  0.47874238  0.45740155  0.02413125     1.49400
Zn39       Zn  0.45262653  0.48403287  0.97305231     1.49100
Zn40       Zn  0.50788864  0.45235582  0.96922916     1.49500
O41         O  0.48603961  0.47586226  0.99107537    -1.84300
O42         O  0.51014981  0.51400295  0.03815766    -0.74900
O43         O  0.44012372  0.45268399  0.02972438    -0.74700
O44         O  0.44765773  0.52345672  0.96758887    -0.74300
O45         O  0.49262151  0.47756636  0.05507407    -0.74900
O46         O  0.48408599  0.54078136  0.98493382    -0.74500
O47         O  0.42155320  0.47032313  0.99410303    -0.75100
O48         O  0.48995108  0.44528230  0.93428017    -0.74500
O49         O  0.49367095  0.42064764  0.02489555    -0.75300
O50         O  0.45157877  0.46671354  0.93713532    -0.74700
O51         O  0.51410650  0.41662156  0.98623668    -0.75100
O52         O  0.54357866  0.46883366  0.96269338    -0.75000
O53         O  0.54088236  0.50879817  0.98119594    -0.74800
C54         C  0.50437828  0.49961532  0.05810408     0.77000
C55         C  0.41971180  0.45824033  0.01617451     0.77500
C56         C  0.46185253  0.54356774  0.97328235     0.76400
C57         C  0.46766178  0.45193603  0.92448963     0.76800
C58         C  0.50683008  0.40697383  0.00834503     0.77900
C59         C  0.55371399  0.49127157  0.96828901     0.77000
C60         C  0.55399202  0.23054710  0.54705149     0.80100
N61         N  0.57228062  0.24459899  0.53312484    -0.78200
C62         C  0.57727500  0.27040957  0.53914063     0.82500
N63         N  0.56359183  0.28191544  0.55929460    -0.78200
C64         C  0.54534006  0.26816455  0.57354717     0.82600
N65         N  0.54052266  0.24254401  0.56701201    -0.79900
C66         C  0.40788858  0.71728144  0.42348964     0.80100
N67         N  0.42288899  0.70414475  0.40550736    -0.78200
C68         C  0.41940436  0.67794302  0.40088555     0.82500
N69         N  0.40049197  0.66473161  0.41464022    -0.78200
C70         C  0.38518501  0.67733955  0.43286390     0.82600
N71         N  0.38915084  0.70363420  0.43723573    -0.79900
C72         C  0.54768394  0.89582349  0.74267898     0.80100
N73         N  0.56758859  0.90786484  0.75641501    -0.78200
C74         C  0.57116702  0.90293985  0.78266922     0.82500
N75         N  0.55437954  0.88601701  0.79504330    -0.78200
C76         C  0.53430893  0.87407322  0.78179644     0.82600
N77         N  0.53094504  0.87915758  0.75563869    -0.79900
C78         C  0.74072098  0.91417292  0.42717487     0.80100
N79         N  0.75462260  0.92944598  0.40986783    -0.78200
C80         C  0.78091302  0.92508612  0.40593724     0.82500
N81         N  0.79318157  0.90535800  0.41939126    -0.78200
C82         C  0.77949932  0.88962876  0.43630946     0.82600
N83         N  0.75328260  0.89425997  0.44015470    -0.79900
C84         C  0.40339549  0.05452988  0.24165765     0.80100
N85         N  0.38475601  0.04010532  0.22852024    -0.78200
C86         C  0.37969070  0.04440031  0.20245369     0.82500
N87         N  0.39389103  0.06316058  0.18947776    -0.78200
C88         C  0.41260456  0.07769475  0.20215750     0.82600
N89         N  0.41741784  0.07316892  0.22820777    -0.79900
C90         C  0.22944920  0.03999141  0.56521638     0.80100
N91         N  0.21681494  0.05774726  0.54950546    -0.78200
C92         C  0.19040847  0.06214270  0.55206291     0.82500
N93         N  0.17661883  0.04856034  0.57081876    -0.78200
C94         C  0.18901465  0.03082160  0.58683142     0.82600
N95         N  0.21535625  0.02653119  0.58365064    -0.79900
Zn96       Zn  0.44813935  0.96357480  0.47250564     1.49700
Zn97       Zn  0.50286689  0.99514876  0.46648715     1.49400
Zn98       Zn  0.47409346  0.99159111  0.52250616     1.49100
Zn99       Zn  0.50029453  0.93968488  0.49764809     1.49500
O100        O  0.48151475  0.97253012  0.48972519    -1.84300
O101        O  0.44469951  0.98215020  0.43791341    -0.74900
O102        O  0.51133034  0.03026423  0.48403929    -0.74700
O103        O  0.43499361  0.99565137  0.52861273    -0.74300
O104        O  0.48288363  0.00334723  0.43265515    -0.74900
O105        O  0.41719419  0.97472306  0.49436001    -0.74500
O106        O  0.49044103  0.02783467  0.52249111    -0.75100
O107        O  0.50559913  0.93525752  0.53695777    -0.74500
O108        O  0.53796813  0.97769284  0.45815397    -0.75300
O109        O  0.48858053  0.97208053  0.55370619    -0.74700
O110        O  0.53646700  0.94017633  0.48095404    -0.75100
O111        O  0.48024025  0.90762223  0.48438774    -0.75000
O112        O  0.44425737  0.92460973  0.46607748    -0.74800
C113        C  0.45972453  0.99724889  0.42450880     0.77000
C114        C  0.50490108  0.04050636  0.50621775     0.77500
C115        C  0.41477320  0.98750367  0.51591670     0.76400
C116        C  0.50012436  0.94992784  0.55675605     0.76800
C117        C  0.54882905  0.95630741  0.46598857     0.77900
C118        C  0.45824648  0.90465756  0.47230375     0.77000
C119        C  0.07169276  0.22047641  0.92189657     0.80100
N120        N  0.05924816  0.23394539  0.90216540    -0.78200
C121        C  0.06455201  0.25994800  0.89753906     0.82500
N122        N  0.08249631  0.27256456  0.91321717    -0.78200
C123        C  0.09537068  0.25947764  0.93289845     0.82600
N124        N  0.08958392  0.23354872  0.93721440    -0.79900
C125        C  0.23325812  0.90984313  0.06263254     0.80100
N126        N  0.24489466  0.92584814  0.08092826    -0.78200
C127        C  0.27106386  0.92343184  0.08664669     0.82500
N128        N  0.28569864  0.90490717  0.07381718    -0.78200
C129        C  0.27460369  0.88908994  0.05508059     0.82600
N130        N  0.24831541  0.89165832  0.04959970    -0.79900
C131        C  0.91786100  0.04328386  0.24587038     0.80100
N132        N  0.89996956  0.03007655  0.26104188    -0.78200
C133        C  0.89633831  0.03666185  0.28690784     0.82500
N134        N  0.91102461  0.05659556  0.29746869    -0.78200
C135        C  0.92888965  0.07015272  0.28262014     0.82600
N136        N  0.93243883  0.06314773  0.25685998    -0.79900
C137        C  0.91715844  0.71353151  0.05449595     0.80100
N138        N  0.93115370  0.70197448  0.07441919    -0.78200
C139        C  0.92828907  0.67572365  0.07960753     0.82500
N140        N  0.91141234  0.66119646  0.06451001    -0.78200
C141        C  0.89727682  0.67228682  0.04451123     0.82600
N142        N  0.90016897  0.69861891  0.03977519    -0.79900
C143        C  0.71643244  0.03285268  0.92768569     0.80100
N144        N  0.70482769  0.01777062  0.90859640    -0.78200
C145        C  0.67851223  0.01984651  0.90338625     0.82500
N146        N  0.66377063  0.03716392  0.91778897    -0.78200
C147        C  0.67491908  0.05249392  0.93689066     0.82600
N148        N  0.70133273  0.05019126  0.94170906    -0.79900
C149        C  0.04250795  0.90827273  0.73358510     0.80100
N150        N  0.06370838  0.92087871  0.72280706    -0.78200
C151        C  0.07190172  0.91506769  0.69784734     0.82500
N152        N  0.05839044  0.89669646  0.68358837    -0.78200
C153        C  0.03724443  0.88387024  0.69407794     0.82600
N154        N  0.02946941  0.88965963  0.71914170    -0.79900
Zn155      Zn  0.00843249  0.97974880  0.96980064     1.49700
Zn156      Zn  0.95180314  0.95044870  0.96758560     1.49400
Zn157      Zn  0.98559554  0.95220004  0.02107929     1.49100
Zn158      Zn  0.95856956  0.00557818  0.99855220     1.49500
O159        O  0.97596558  0.97203901  0.98926734    -1.84300
O160        O  0.00678599  0.96358985  0.93376442    -0.74900
O161        O  0.94395028  0.91497177  0.98465614    -0.74700
O162        O  0.02538500  0.94698743  0.02462421    -0.74300
O163        O  0.96757732  0.94366105  0.93150313    -0.74900
O164        O  0.04086309  0.96540416  0.98803644    -0.74500
O165        O  0.96845468  0.91627719  0.02102152    -0.75100
O166        O  0.95465022  0.00834448  0.03831495    -0.74500
O167        O  0.91689955  0.96901636  0.96228392    -0.75300
O168        O  0.97231304  0.97100984  0.05346625    -0.74700
O169        O  0.92148039  0.00739100  0.98316933    -0.75100
O170        O  0.97948966  0.03733405  0.98511262    -0.86200
O171        O  0.01393013  0.01895061  0.96513586    -0.74800
C172        C  0.98960746  0.95017937  0.92104897     0.77000
C173        C  0.95231844  0.90415196  0.00584060     0.77500
C174        C  0.04480419  0.95318851  0.00970079     0.76400
C175        C  0.96057123  0.99297196  0.05743073     0.76800
C176        C  0.90753470  0.99126483  0.96957717     0.77900
C177        C  0.00110606  0.03949107  0.97219612     0.77000
C178        C  0.24200507  0.53405555  0.56593602     0.80100
N179        N  0.25706785  0.51963441  0.58286853    -0.78200
C180        C  0.28343122  0.52453470  0.58547138     0.82500
N181        N  0.29467201  0.54399155  0.57064336    -0.78200
C182        C  0.27991076  0.55825206  0.55324125     0.82600
N183        N  0.25359488  0.55318180  0.55106968    -0.79900
C184        C  0.72755798  0.41730619  0.42053088     0.80100
N185        N  0.71472790  0.43219144  0.40224436    -0.78200
C186        C  0.68920069  0.42709132  0.39560723     0.82500
N187        N  0.67632835  0.40677557  0.40764308    -0.78200
C188        C  0.68885470  0.39135096  0.42579194     0.82600
N189        N  0.71448552  0.39682034  0.43222255    -0.79900
C190        C  0.91728115  0.72895814  0.55115450     0.80100
N191        N  0.93156914  0.74176017  0.57005561    -0.78200
C192        C  0.92532280  0.76686499  0.57733524     0.82500
N193        N  0.90475800  0.77907339  0.56508697    -0.78200
C194        C  0.89015039  0.76663575  0.54625607     0.82600
N195        N  0.89654919  0.74140143  0.53932248    -0.79900
C196        C  0.05673570  0.21623090  0.42480921     0.80100
N197        N  0.04412869  0.20506253  0.40376406    -0.78200
C198        C  0.04935719  0.17971232  0.39633473     0.82500
N199        N  0.06726988  0.16551011  0.41049107    -0.78200
C200        C  0.08020111  0.17636299  0.43145874     0.82600
N201        N  0.07488706  0.20179343  0.43844504    -0.79900
C202        C  0.93029558  0.39614313  0.75014110     0.80100
N203        N  0.90889151  0.40672229  0.76251277    -0.78200
C204        C  0.90285758  0.40021758  0.78789681     0.82500
N205        N  0.91885707  0.38291263  0.80097798    -0.78200
C206        C  0.94017470  0.37189308  0.78874021     0.82600
N207        N  0.94583205  0.37866803  0.76335531    -0.79900
C208        C  0.04924300  0.53608862  0.23680010     0.80100
N209        N  0.06675368  0.52152480  0.22251475    -0.78200
C210        C  0.07089749  0.52669666  0.19644132     0.82500
N211        N  0.05704030  0.54659086  0.18484065    -0.78200
C212        C  0.03934369  0.56133225  0.19881325     0.82600
N213        N  0.03567442  0.55595544  0.22487875    -0.79900
Zn214      Zn  0.96636430  0.43940108  0.50307965     1.49700
Zn215      Zn  0.01836281  0.46159137  0.47470342     1.49400
Zn216      Zn  0.96411693  0.49375791  0.47035050     1.49100
Zn217      Zn  0.99548706  0.49097763  0.52547916     1.49500
O218        O  0.98597203  0.47143533  0.49338706    -1.84300
O219        O  0.98485029  0.40642211  0.48965706    -0.74900
O220        O  0.01947723  0.47757647  0.43841451    -0.74700
O221        O  0.92775246  0.47789926  0.46537572    -0.74300
O222        O  0.02100168  0.42215607  0.47040534    -0.74900
O223        O  0.92917746  0.44036358  0.48832093    -0.74500
O224        O  0.98050305  0.49761235  0.43418764    -0.75100
O225        O  0.98057713  0.52785396  0.52464065    -0.74500
O226        O  0.05088591  0.47381348  0.49406998    -0.75300
O227        O  0.96003943  0.53060991  0.48582826    -0.74700
O228        O  0.03501082  0.49441011  0.52939458    -0.75100
O229        O  0.98236875  0.47241454  0.55822073    -0.75000
O230        O  0.96324281  0.43610346  0.54267947    -0.74800
C231        C  0.00653805  0.40268295  0.47723617     0.77000
C232        C  0.00291174  0.49081049  0.42483116     0.77500
C233        C  0.91675157  0.45681493  0.47379479     0.76400
C234        C  0.96735059  0.54100201  0.50768544     0.76800
C235        C  0.05454601  0.48652366  0.51553044     0.77900
C236        C  0.97035269  0.45056518  0.56209270     0.77000
C237        C  0.04360019  0.52941578  0.26465802    -0.20000
C238        C  0.04047981  0.50284665  0.27282692     0.36200
C239        C  0.03364860  0.49746860  0.29922780    -0.26000
C240        C  0.03000933  0.51805545  0.31746861     0.02600
C241        C  0.03346727  0.54453886  0.30950233     0.27400
C242        C  0.04007647  0.54999247  0.28304982    -0.25100
N243        N  0.04358641  0.48150281  0.25419307    -0.82500
H244        H  0.03097795  0.47716602  0.30564048     0.13200
C245        C  0.02261799  0.51151477  0.34495094     0.02600
N246        N  0.03012356  0.56569317  0.32829813    -0.81100
H247        H  0.04250925  0.57035377  0.27673287     0.18100
C248        C  0.04156616  0.51438961  0.36501023    -0.25900
C249        C  0.03548856  0.50787934  0.39133226     0.36100
C250        C  0.00989540  0.49842080  0.39755122    -0.20000
C251        C  0.99081123  0.49593838  0.37746776    -0.25200
C252        C  0.99700874  0.50224377  0.35109869     0.27500
H253        H  0.06117038  0.52162524  0.36002719     0.13200
N254        N  0.05505027  0.51114649  0.41180386    -0.82500
H255        H  0.97120057  0.48862799  0.38231580     0.18100
N256        N  0.97754822  0.49917189  0.33050684    -0.81100
H257        H  0.07285997  0.51815270  0.40385737     0.33700
H258        H  0.04819469  0.52579613  0.42475742     0.38200
H259        H  0.95978112  0.49188561  0.33829820     0.33700
H260        H  0.97342559  0.51799107  0.32295505     0.30400
H261        H  0.03362848  0.58400812  0.31931825     0.33700
H262        H  0.01027815  0.56569009  0.33426944     0.30400
H263        H  0.02852973  0.48323569  0.24006692     0.38200
H264        H  0.04082269  0.46322124  0.26350068     0.33700
C265        C  0.93674188  0.40414302  0.72268298    -0.20000
C266        C  0.96317813  0.40569650  0.71361042     0.36200
C267        C  0.96834815  0.41371394  0.68753240    -0.26000
C268        C  0.94758169  0.42015647  0.67031259     0.02600
C269        C  0.92118400  0.41887551  0.67923981     0.27400
C270        C  0.91600661  0.41093796  0.70538578    -0.25100
N271        N  0.98486948  0.39982563  0.73094300    -0.82500
H272        H  0.98866825  0.41486916  0.68065420     0.13200
C273        C  0.95369799  0.42798872  0.64282209     0.02600
N274        N  0.89981388  0.42564013  0.66166992    -0.81100
H275        H  0.89567493  0.40984439  0.71220758     0.18100
C276        C  0.94842481  0.41016578  0.62224999    -0.25900
C277        C  0.95406435  0.41667672  0.59579099     0.36100
C278        C  0.96465086  0.44202257  0.58976730    -0.20000
C279        C  0.96994399  0.45975508  0.61070410    -0.25200
C280        C  0.96461298  0.45295723  0.63713580     0.27500
H281        H  0.94019615  0.39090772  0.62697658     0.13200
N282        N  0.94926040  0.39749263  0.57525446    -0.82500
H283        H  0.97810758  0.47914446  0.60650400     0.18100
N284        N  0.97008090  0.47131830  0.65824690    -0.81100
H285        H  0.94052203  0.38040311  0.58303684     0.33700
H286        H  0.96769038  0.39169551  0.56776926     0.38200
H287        H  0.97827852  0.48880050  0.65077031     0.33700
H288        H  0.95197902  0.47647849  0.66690977     0.30400
H289        H  0.88155792  0.42349785  0.67123464     0.33700
H290        H  0.90172267  0.44571471  0.65698411     0.30400
H291        H  0.99594109  0.38452824  0.72243323     0.38200
H292        H  0.99697202  0.41660786  0.73213234     0.33700
C293        C  0.04980518  0.24354063  0.43328809    -0.20000
C294        C  0.05164621  0.25174085  0.46009238     0.36200
C295        C  0.04458355  0.27777509  0.46699653    -0.26000
C296        C  0.03538849  0.29555487  0.44785969     0.02600
C297        C  0.03314113  0.28744667  0.42128154     0.27400
C298        C  0.04043158  0.26153997  0.41422862    -0.25100
N299        N  0.06003646  0.23355410  0.48031228    -0.82500
H300        H  0.04599848  0.28422446  0.48743929     0.13200
C301        C  0.02809089  0.32270533  0.45594467     0.02600
N302        N  0.02349425  0.30560965  0.40161413    -0.81100
H303        H  0.03885457  0.25541507  0.39370625     0.18100
C304        C  0.04615507  0.34329890  0.45182518    -0.25900
C305        C  0.04006090  0.36943612  0.45923504     0.36100
C306        C  0.01485832  0.37516515  0.47039851    -0.20000
C307        C  0.99698447  0.35416348  0.47475179    -0.25200
C308        C  0.00339235  0.32801793  0.46768202     0.27500
H309        H  0.06523761  0.33883909  0.44303074     0.13200
N310        N  0.05950217  0.38995641  0.45557735    -0.82500
H311        H  0.97775810  0.35812197  0.48343173     0.18100
N312        N  0.98493461  0.30680947  0.47229030    -0.81100
H313        H  0.07648067  0.38247038  0.44634912     0.33700
H314        H  0.06545032  0.39633429  0.47438205     0.38200
H315        H  0.96772551  0.31395837  0.48133886     0.33700
H316        H  0.97923233  0.29927850  0.45383817     0.30400
H317        H  0.02321261  0.29663548  0.38293546     0.33700
H318        H  0.00380863  0.31006380  0.40630951     0.30400
H319        H  0.04564132  0.21870216  0.48166815     0.38200
H320        H  0.06062786  0.24288930  0.49880755     0.33700
C321        C  0.96046407  0.56900426  0.51345491    -0.20000
C322        C  0.95716045  0.57820188  0.53976395     0.36200
C323        C  0.95059323  0.60484897  0.54426028    -0.26000
C324        C  0.94726184  0.62245797  0.52315403     0.02600
C325        C  0.95087878  0.61359432  0.49695541     0.27400
C326        C  0.95733166  0.58688518  0.49233017    -0.25100
N327        N  0.95995599  0.56042224  0.56181381    -0.82500
H328        H  0.94773515  0.61193235  0.56433934     0.13200
C329        C  0.93915932  0.64996878  0.52897641     0.02600
N330        N  0.94797863  0.63175681  0.47524560    -0.81100
H331        H  0.96011755  0.58005032  0.47216322     0.18100
C332        C  0.95819003  0.67017923  0.52862013    -0.25900
C333        C  0.95136542  0.69625452  0.53559906     0.36100
C334        C  0.92497194  0.70206614  0.54282969    -0.20000
C335        C  0.90582501  0.68193629  0.54253969    -0.25200
C336        C  0.91275204  0.65580511  0.53592190     0.27500
H337        H  0.97844028  0.66547707  0.52323399     0.13200
N338        N  0.97102949  0.71688094  0.53524685    -0.82500
H339        H  0.88559908  0.68651431  0.54812546     0.18100
N340        N  0.89326157  0.63503526  0.53662995    -0.81100
H341        H  0.98945821  0.70929698  0.52958561     0.33700
H342        H  0.96551636  0.73051186  0.52068297     0.38200
H343        H  0.87485224  0.64252586  0.54247633     0.33700
H344        H  0.89092187  0.62793384  0.51730138     0.30400
H345        H  0.95156214  0.62216954  0.45722243     0.33700
H346        H  0.92821386  0.63794282  0.47483451     0.30400
H347        H  0.94464905  0.54650067  0.56057477     0.38200
H348        H  0.95735862  0.57048280  0.57974830     0.33700
C349        C  0.75534705  0.42373256  0.42809816    -0.20000
C350        C  0.76630746  0.44935600  0.42443587     0.36200
C351        C  0.79272572  0.45420674  0.43182159    -0.26000
C352        C  0.80858560  0.43416137  0.44262336     0.02600
C353        C  0.79777647  0.40863291  0.44619967     0.27400
C354        C  0.77126191  0.40377739  0.43915753    -0.25100
N355        N  0.75060796  0.47054007  0.41368881    -0.82500
H356        H  0.80093186  0.47390674  0.42949783     0.13200
C357        C  0.83636697  0.44029797  0.45042292     0.02600
N358        N  0.81389844  0.38763149  0.45664024    -0.81100
H359        H  0.76316475  0.38408976  0.44186430     0.18100
C360        C  0.84472827  0.43494067  0.47640203    -0.25900
C361        C  0.87086093  0.44016962  0.48451825     0.36100
C362        C  0.88894503  0.45129912  0.46632312    -0.20000
C363        C  0.88043561  0.45726173  0.44053968    -0.25200
C364        C  0.85443804  0.45157262  0.43227842     0.27500
H365        H  0.83070193  0.42681154  0.49047170     0.13200
N366        N  0.87894646  0.43466744  0.51126865    -0.82500
H367        H  0.89435227  0.46576602  0.42657741     0.18100
N368        N  0.84644211  0.45680114  0.40544601    -0.81100
H369        H  0.86330842  0.42639229  0.52205099     0.33700
H370        H  0.88346254  0.45275062  0.52033288     0.38200
H371        H  0.86204893  0.46515864  0.39468272     0.33700
H372        H  0.84212194  0.43861602  0.39649744     0.30400
H373        H  0.80296799  0.37009727  0.45815016     0.33700
H374        H  0.82908290  0.38401577  0.44301576     0.30400
H375        H  0.73572120  0.47488611  0.42742792     0.38200
H376        H  0.76191883  0.48777538  0.41161544     0.33700
C377        C  0.21371086  0.52752080  0.56204183    -0.20000
C378        C  0.19506654  0.54712471  0.55524446     0.36200
C379        C  0.16900560  0.53981154  0.54903749    -0.26000
C380        C  0.16090279  0.51324086  0.55018457     0.02600
C381        C  0.17919559  0.49369991  0.55829574     0.27400
C382        C  0.20545906  0.50103202  0.56397325    -0.25100
N383        N  0.20239660  0.57453758  0.55502142    -0.82500
H384        H  0.15511908  0.55498126  0.54293384     0.13200
C385        C  0.13351231  0.50610554  0.54201914     0.02600
N386        N  0.17104404  0.46650805  0.56061823    -0.81100
H387        H  0.21967054  0.48589651  0.56937275     0.18100
C388        C  0.12981278  0.48661961  0.52252571    -0.25900
C389        C  0.10433686  0.47926233  0.51405375     0.36100
C390        C  0.08195241  0.49253866  0.52455202    -0.20000
C391        C  0.08576536  0.51212163  0.54404647    -0.25200
C392        C  0.11122959  0.51882273  0.55308697     0.27500
H393        H  0.14696693  0.47702005  0.51389323     0.13200
N394        N  0.10125612  0.45818641  0.49509463    -0.82500
H395        H  0.06879820  0.52232958  0.55232698     0.18100
N396        N  0.11453743  0.53836887  0.57357591    -0.81100
H397        H  0.09171655  0.44251860  0.50471100     0.33700
H398        H  0.11971575  0.45096500  0.48906236     0.38200
H399        H  0.09619097  0.54595787  0.57948872     0.33700
H400        H  0.12261897  0.52884834  0.59008532     0.30400
H401        H  0.18691011  0.45463382  0.56662158     0.33700
H402        H  0.15682631  0.46550957  0.57564863     0.30400
H403        H  0.19871094  0.58203237  0.53608047     0.38200
H404        H  0.19017524  0.58457662  0.56840983     0.33700
C405        C  0.02188491  0.86480451  0.67795543    -0.20000
C406        C  0.01918522  0.86802543  0.65032236     0.36200
C407        C  0.00327783  0.85048195  0.63592202    -0.26000
C408        C  0.98970180  0.82983293  0.64852965     0.02600
C409        C  0.99270331  0.82608857  0.67602565     0.27400
C410        C  0.00877522  0.84368288  0.69051203    -0.25100
N411        N  0.03167948  0.88966304  0.63687721    -0.82500
H412        H  0.00109678  0.85329773  0.61474329     0.13200
C413        C  0.97180212  0.81304383  0.63247994     0.02600
N414        N  0.97910904  0.80477771  0.68911957    -0.81100
H415        H  0.01090113  0.84103227  0.71170653     0.18100
C416        C  0.97709203  0.78597733  0.62964366    -0.25900
C417        C  0.96223027  0.77014275  0.61211186     0.36100
C418        C  0.94134058  0.78176669  0.59727412    -0.20000
C419        C  0.93556351  0.80878233  0.60126012    -0.25200
C420        C  0.95048955  0.82444224  0.61864786     0.27500
H421        H  0.99355021  0.77740367  0.64042880     0.13200
N422        N  0.96862073  0.74254457  0.60931665    -0.82500
H423        H  0.91953367  0.81806471  0.59047099     0.18100
N424        N  0.94431931  0.85203958  0.62212934    -0.81100
H425        H  0.98275165  0.73688809  0.62336481     0.33700
H426        H  0.97770508  0.74014134  0.59085652     0.38200
H427        H  0.92818489  0.85747894  0.61033372     0.33700
H428        H  0.93845255  0.85473216  0.64181624     0.30400
H429        H  0.98356906  0.80469088  0.70935248     0.33700
H430        H  0.95876386  0.80835562  0.68753697     0.30400
H431        H  0.04397181  0.88187826  0.62212638     0.38200
H432        H  0.01693531  0.90091902  0.62767927     0.33700
C433        C  0.99575056  0.94231639  0.89349643    -0.20000
C434        C  0.97572374  0.93830202  0.87427362     0.36200
C435        C  0.98300900  0.93222050  0.84809685    -0.26000
C436        C  0.00974384  0.93030005  0.84085709     0.02600
C437        C  0.02967989  0.93369275  0.86004294     0.27400
C438        C  0.02249746  0.93979233  0.88613705    -0.25100
N439        N  0.94820423  0.94108208  0.88113042    -0.82500
H440        H  0.96785005  0.92952917  0.83311255     0.13200
C441        C  0.01681088  0.92494897  0.81302296     0.02600
N442        N  0.05712407  0.93089174  0.85287119    -0.81100
H443        H  0.03791746  0.94252774  0.90084046     0.18100
C444        C  0.03046913  0.94434193  0.79865759    -0.25900
C445        C  0.03872716  0.93953993  0.77261716     0.36100
C446        C  0.03341366  0.91474728  0.76071780    -0.20000
C447        C  0.01905679  0.89563212  0.77502240    -0.25200
C448        C  0.01081774  0.90045540  0.80113262     0.27500
H449        H  0.03478988  0.96331574  0.80777435     0.13200
N450        N  0.05202781  0.96009382  0.75827868    -0.82500
H451        H  0.01478305  0.87658791  0.76607146     0.18100
N452        N  0.99684294  0.88045995  0.81581634    -0.81100
H453        H  0.03956557  0.97661374  0.75762950     0.33700
H454        H  0.06910448  0.96535004  0.76879284     0.38200
H455        H  0.99388718  0.86358226  0.80415304     0.33700
H456        H  0.00893513  0.87472917  0.83162210     0.30400
H457        H  0.06934132  0.93410841  0.86930421     0.33700
H458        H  0.06008244  0.91124426  0.84701798     0.30400
H459        H  0.94498210  0.96093229  0.88608885     0.38200
H460        H  0.93613804  0.93705071  0.86476347     0.33700
C461        C  0.74522106  0.02984433  0.93324242    -0.20000
C462        C  0.75627927  0.03535400  0.95846609     0.36200
C463        C  0.78347660  0.03099912  0.96276391    -0.26000
C464        C  0.79974959  0.02093778  0.94263149     0.02600
C465        C  0.78897105  0.01600900  0.91736408     0.27400
C466        C  0.76185965  0.02045302  0.91294204    -0.25100
N467        N  0.73984688  0.04443661  0.97989904    -0.82500
H468        H  0.79187944  0.03452399  0.98221613     0.13200
C469        C  0.82760057  0.01388990  0.94881823     0.02600
N470        N  0.80563184  0.00634439  0.89636965    -0.81100
H471        H  0.75369298  0.01649968  0.89348254     0.18100
C472        C  0.83527755  0.98728868  0.94726969    -0.25900
C473        C  0.86105363  0.97930439  0.95409000     0.36100
C474        C  0.87985854  0.99855195  0.96225945    -0.20000
C475        C  0.87200236  0.02527469  0.96370514    -0.25200
C476        C  0.84609529  0.03311819  0.95703428     0.27500
H477        H  0.82080362  0.97257169  0.94128491     0.13200
N478        N  0.86786254  0.95166452  0.95326960    -0.82500
H479        H  0.88617381  0.04019032  0.96986997     0.18100
N480        N  0.83849394  0.06051472  0.95842583    -0.81100
H481        H  0.85198333  0.94035412  0.94620981     0.33700
H482        H  0.87120358  0.94553431  0.97276719     0.38200
H483        H  0.85437029  0.07216888  0.96490342     0.33700
H484        H  0.83401710  0.06672056  0.93918484     0.30400
H485        H  0.79464597  0.00358300  0.87901137     0.33700
H486        H  0.81966944  0.02102159  0.89227428     0.30400
H487        H  0.72673409  0.02910690  0.98463704     0.38200
H488        H  0.75119096  0.04795845  0.99688133     0.33700
C489        C  0.02310669  0.58171476  0.18494910    -0.20000
C490        C  0.99909924  0.59190728  0.19554832     0.36200
C491        C  0.98337665  0.60886430  0.18000715    -0.26000
C492        C  0.99111214  0.61604025  0.15435841     0.02600
C493        C  0.01514446  0.60642600  0.14397043     0.27400
C494        C  0.03096513  0.58966520  0.15941827    -0.25100
N495        N  0.99022543  0.58453962  0.22158681    -0.82500
H496        H  0.96485822  0.61641899  0.18782642     0.13200
C497        C  0.97351045  0.63277692  0.13792021     0.02600
N498        N  0.02301600  0.61316019  0.11743124    -0.81100
H499        H  0.04930001  0.58227185  0.15107465     0.18100
C500        C  0.98282613  0.65724957  0.12875278    -0.25900
C501        C  0.96838735  0.67204116  0.11011664     0.36100
C502        C  0.94367215  0.66236926  0.10093166    -0.20000
C503        C  0.93385220  0.63842324  0.11132692    -0.25200
C504        C  0.94859223  0.62343545  0.12950548     0.27500
H505        H  0.00204184  0.66425540  0.13535087     0.13200
N506        N  0.97944586  0.69606561  0.09965789    -0.82500
H507        H  0.91482530  0.63094196  0.10473410     0.18100
N508        N  0.93873861  0.59838754  0.13881947    -0.81100
H509        H  0.99721983  0.70078602  0.10922965     0.33700
H510        H  0.98432007  0.69237539  0.07986615     0.38200
H511        H  0.92002500  0.59443261  0.13082122     0.33700
H512        H  0.95141507  0.58362354  0.13172570     0.30400
H513        H  0.04126700  0.60453616  0.11276742     0.33700
H514        H  0.00909758  0.60490219  0.10447047     0.30400
H515        H  0.00287599  0.59367050  0.23523989     0.38200
H516        H  0.97131576  0.59212764  0.22534195     0.33700
C517        C  0.94351403  0.87695404  0.01335972    -0.20000
C518        C  0.92967044  0.85990148  0.99578008     0.36200
C519        C  0.92344106  0.83393886  0.00387815    -0.26000
C520        C  0.93068416  0.82460987  0.02902746     0.02600
C521        C  0.94335158  0.84188317  0.04694163     0.27400
C522        C  0.94969977  0.86770438  0.03892622    -0.25100
N523        N  0.92243674  0.86860538  0.96965351    -0.82500
H524        H  0.91373117  0.82056413  0.99014684     0.13200
C525        C  0.92660502  0.79625603  0.03580916     0.02600
N526        N  0.94989395  0.83300784  0.07320045    -0.81100
H527        H  0.95974483  0.88062285  0.05283736     0.18100
C528        C  0.94868577  0.78094091  0.04284793    -0.25900
C529        C  0.94610530  0.75398496  0.04909346     0.36100
C530        C  0.92081193  0.74198769  0.04829629    -0.20000
C531        C  0.89872650  0.75724295  0.04093258    -0.25200
C532        C  0.90132254  0.78434252  0.03494279     0.27500
H533        H  0.96815433  0.79003137  0.04304135     0.13200
N534        N  0.96920433  0.73864109  0.05547222    -0.82500
H535        H  0.87930707  0.74807463  0.04029542     0.18100
N536        N  0.87840984  0.79987072  0.02830093    -0.81100
H537        H  0.98620046  0.75050816  0.05544398     0.33700
H538        H  0.97173448  0.72462337  0.04041758     0.38200
H539        H  0.86132048  0.78813967  0.02854403     0.33700
H540        H  0.87602760  0.81415009  0.04313064     0.30400
H541        H  0.95931895  0.84804460  0.08392450     0.33700
H542        H  0.93211442  0.82894533  0.08302819     0.30400
H543        H  0.93993323  0.87090973  0.95879862     0.38200
H544        H  0.91137679  0.85405913  0.95985387     0.33700
C545        C  0.03383108  0.16700878  0.37458782    -0.20000
C546        C  0.04121185  0.14235369  0.36333040     0.36200
C547        C  0.02400765  0.12970697  0.34542045    -0.26000
C548        C  0.99996220  0.14134081  0.33781467     0.02600
C549        C  0.99335543  0.16664853  0.34763206     0.27400
C550        C  0.01023833  0.17912440  0.36595702    -0.25100
N551        N  0.06593407  0.13000983  0.37022813    -0.82500
H552        H  0.02905696  0.11024850  0.33789415     0.13200
C553        C  0.98097767  0.12570429  0.32151680     0.02600
N554        N  0.96927172  0.17935934  0.33929029    -0.81100
H555        H  0.00445077  0.19813156  0.37405291     0.18100
C556        C  0.95536048  0.12135121  0.33132861    -0.25900
C557        C  0.93745190  0.10468384  0.31809336     0.36100
C558        C  0.94568541  0.09100548  0.29503191    -0.20000
C559        C  0.97096283  0.09633324  0.28453429    -0.25200
C560        C  0.98859656  0.11371570  0.29742304     0.27500
H561        H  0.94945024  0.13060862  0.34978299     0.13200
N562        N  0.91095147  0.10168939  0.32805922    -0.82500
H563        H  0.97732671  0.08634916  0.26662361     0.18100
N564        N  0.01432182  0.11897664  0.28637044    -0.81100
H565        H  0.89802138  0.10940201  0.31384168     0.33700
H566        H  0.90820797  0.11289712  0.34527569     0.38200
H567        H  0.01690164  0.10855661  0.26864269     0.33700
H568        H  0.01506106  0.13910587  0.28159778     0.30400
H569        H  0.96717340  0.19779877  0.34850144     0.33700
H570        H  0.97085041  0.18297574  0.31896212     0.30400
H571        H  0.08115835  0.14213242  0.36311863     0.38200
H572        H  0.06798640  0.11176212  0.36063014     0.33700
C573        C  0.95327243  0.00031530  0.08491839    -0.20000
C574        C  0.95094772  0.02703150  0.09302318     0.36200
C575        C  0.94400561  0.03277699  0.11936640    -0.26000
C576        C  0.93946503  0.01247212  0.13769708     0.02600
C577        C  0.94155231  0.98585899  0.12971780     0.27400
C578        C  0.94846091  0.98002708  0.10339612    -0.25100
N579        N  0.95618273  0.04820989  0.07474154    -0.82500
H580        H  0.94251169  0.05320127  0.12582283     0.13200
C581        C  0.93397666  0.01955085  0.16556756     0.02600
N582        N  0.93683970  0.96494063  0.14843049    -0.81100
H583        H  0.95000919  0.95951180  0.09726500     0.18100
C584        C  0.90822162  0.01706443  0.17562323    -0.25900
C585        C  0.90229966  0.02478111  0.20176499     0.36100
C586        C  0.92270105  0.03511428  0.21805891    -0.20000
C587        C  0.94851017  0.03729407  0.20783798    -0.25200
C588        C  0.95439394  0.02931317  0.18186537     0.27500
H589        H  0.89267218  0.00947421  0.16287874     0.13200
N590        N  0.87562920  0.02263335  0.21156682    -0.82500
H591        H  0.96430035  0.04478071  0.22033769     0.18100
N592        N  0.98105341  0.03090699  0.17192627    -0.81100
H593        H  0.86316813  0.01443571  0.19716588     0.33700
H594        H  0.86872485  0.04182462  0.21515487     0.38200
H595        H  0.99378389  0.03856091  0.18638857     0.33700
H596        H  0.98743993  0.01158940  0.16804972     0.30400
H597        H  0.93898230  0.94644689  0.13933456     0.33700
H598        H  0.95153214  0.96613776  0.16299615     0.30400
H599        H  0.97626299  0.04730829  0.06969094     0.38200
H600        H  0.95322308  0.06659769  0.08381715     0.33700
C601        C  0.20474799  0.91318656  0.05592233    -0.20000
C602        C  0.18647406  0.92383434  0.07427548     0.36200
C603        C  0.16016368  0.92844829  0.06657033    -0.26000
C604        C  0.15145502  0.92238492  0.04088900     0.02600
C605        C  0.16930323  0.91073666  0.02277293     0.27400
C606        C  0.19575313  0.90630804  0.03044523    -0.25100
N607        N  0.19439491  0.92975648  0.10088894    -0.82500
H608        H  0.14655535  0.93729719  0.08063295     0.13200
C609        C  0.12402586  0.92961898  0.03287428     0.02600
N610        N  0.16049664  0.90361176  0.99662326    -0.81100
H611        H  0.20950974  0.89795160  0.01624009     0.18100
C612        C  0.12042866  0.94726928  0.01179130    -0.25900
C613        C  0.09500884  0.95569200  0.00411585     0.36100
C614        C  0.07238494  0.94580272  0.01759593    -0.20000
C615        C  0.07617232  0.92818838  0.03887771    -0.25200
C616        C  0.10168963  0.92002300  0.04663046     0.27500
H617        H  0.13769382  0.95501049  0.00163069     0.13200
N618        N  0.09231188  0.97453402  0.98295144    -0.82500
H619        H  0.05913801  0.92047403  0.04941056     0.18100
N620        N  0.10501765  0.90186841  0.06828928    -0.81100
H621        H  0.11077489  0.97903171  0.97468147     0.33700
H622        H  0.08519162  0.99214478  0.99121910     0.38200
H623        H  0.08665532  0.89678730  0.07644292     0.33700
H624        H  0.11315940  0.88443298  0.06063329     0.30400
H625        H  0.17605069  0.89539476  0.98567180     0.33700
H626        H  0.14617556  0.88877564  0.99864875     0.30400
H627        H  0.19083896  0.94985060  0.10440648     0.38200
H628        H  0.18243750  0.91878050  0.11375420     0.33700
C629        C  0.95801142  0.35387097  0.80339436    -0.20000
C630        C  0.96933829  0.33140047  0.79113080     0.36200
C631        C  0.98725684  0.31559175  0.80542007    -0.26000
C632        C  0.99402165  0.32180622  0.83164324     0.02600
C633        C  0.98248098  0.34405444  0.84401205     0.27400
C634        C  0.96447912  0.35979237  0.82979297    -0.25100
N635        N  0.96239434  0.32457089  0.76435046    -0.82500
H636        H  0.99611694  0.29841485  0.79607313     0.13200
C637        C  0.01318769  0.30488636  0.84608963     0.02600
N638        N  0.98917781  0.35057070  0.87093792    -0.81100
H639        H  0.95586386  0.37707470  0.83917979     0.18100
C640        C  0.03734140  0.31578003  0.85436554    -0.25900
C641        C  0.05533116  0.30103415  0.86964978     0.36100
C642        C  0.04856505  0.27499092  0.87768676    -0.20000
C643        C  0.02493607  0.26369273  0.86793830    -0.25200
C644        C  0.00724593  0.27834480  0.85221135     0.27500
H645        H  0.04210763  0.33597742  0.84889041     0.13200
N646        N  0.08038516  0.31248559  0.87685979    -0.82500
H647        H  0.01962863  0.24364378  0.87338483     0.18100
N648        N  0.98293191  0.26661887  0.84303502    -0.81100
H649        H  0.08198458  0.33186263  0.86975786     0.33700
H650        H  0.09513667  0.30150723  0.86731384     0.38200
H651        H  0.98162036  0.24685516  0.84904178     0.33700
H652        H  0.96727263  0.27665102  0.85216157     0.30400
H653        H  0.97919497  0.36766433  0.87702506     0.33700
H654        H  0.98238852  0.33515409  0.88297036     0.30400
H655        H  0.97252965  0.30756438  0.75827362     0.38200
H656        H  0.94221466  0.31982724  0.76412534     0.33700
C657        C  0.06381784  0.19255685  0.92804679    -0.20000
C658        C  0.07665879  0.17718675  0.94781846     0.36200
C659        C  0.06645654  0.15208835  0.95447961    -0.26000
C660        C  0.04416313  0.14174886  0.94158154     0.02600
C661        C  0.03209534  0.15625966  0.92114672     0.27400
C662        C  0.04191577  0.18147499  0.91465685    -0.25100
N663        N  0.09987061  0.18694382  0.96119388    -0.82500
H664        H  0.07585884  0.14050457  0.96989792     0.13200
C665        C  0.03350508  0.11563378  0.94965470     0.02600
N666        N  0.00967621  0.14538921  0.90729125    -0.81100
H667        H  0.03199323  0.19264466  0.89928698     0.18100
C668        C  0.01119882  0.11454075  0.96612691    -0.25900
C669        C  0.00033490  0.09012796  0.97414973     0.36100
C670        C  0.01183997  0.06616229  0.96499276    -0.20000
C671        C  0.03429233  0.06759004  0.94838557    -0.25200
C672        C  0.04520257  0.09202466  0.94069011     0.27500
H673        H  0.00239641  0.13289518  0.97294748     0.13200
N674        N  0.97782137  0.08978312  0.99160476    -0.82500
H675        H  0.04339244  0.04955538  0.94116196     0.18100
N676        N  0.06810409  0.09301239  0.92376562    -0.81100
H677        H  0.97127695  0.10903260  0.99553077     0.33700
H678        H  0.98415858  0.08204372  0.00973595     0.38200
H679        H  0.07449696  0.07389188  0.91903149     0.33700
H680        H  0.06237945  0.10187093  0.90595474     0.30400
H681        H  0.00288986  0.15862438  0.89290227     0.33700
H682        H  0.01613472  0.12850986  0.89716287     0.30400
H683        H  0.11510186  0.18803595  0.94718783     0.38200
H684        H  0.10620801  0.17357274  0.97566120     0.33700
C685        C  0.17651445  0.08092769  0.53410230    -0.20000
C686        C  0.18682366  0.08795785  0.50889131     0.36200
C687        C  0.17242840  0.10529683  0.49255510    -0.26000
C688        C  0.14788042  0.11531103  0.50056709     0.02600
C689        C  0.13767671  0.10872644  0.52563615     0.27400
C690        C  0.15207452  0.09163625  0.54216551    -0.25100
N691        N  0.21133098  0.07688992  0.49948226    -0.82500
H692        H  0.17991982  0.11034660  0.47308126     0.13200
C693        C  0.13198600  0.13105697  0.48175987     0.02600
N694        N  0.11248811  0.11911257  0.53395178    -0.81100
H695        H  0.14406744  0.08661162  0.56142625     0.18100
C696        C  0.11189597  0.11833673  0.46748804    -0.25900
C697        C  0.09527083  0.13257716  0.45046796     0.36100
C698        C  0.09866390  0.16022480  0.44767077    -0.20000
C699        C  0.11929920  0.17282252  0.46162923    -0.25200
C700        C  0.13609032  0.15844010  0.47859778     0.27500
H701        H  0.10882146  0.09722982  0.46993363     0.13200
N702        N  0.07438984  0.11893418  0.43687771    -0.82500
H703        H  0.12222474  0.19396476  0.45943764     0.18100
N704        N  0.15714585  0.17146582  0.49272068    -0.81100
H705        H  0.06229118  0.10984449  0.45101853     0.33700
H706        H  0.08290101  0.10409562  0.42518937     0.38200
H707        H  0.15767252  0.19161331  0.48800717     0.33700
H708        H  0.15286211  0.17024731  0.51294880     0.30400
H709        H  0.10760246  0.11215270  0.55283077     0.33700
H710        H  0.11442911  0.13966766  0.53557066     0.30400
H711        H  0.20830462  0.05659039  0.49668413     0.38200
H712        H  0.21629588  0.08464360  0.48093305     0.33700
C713        C  0.17399176  0.01487094  0.60649106    -0.20000
C714        C  0.14890919  0.02275626  0.61621380     0.36200
C715        C  0.13498594  0.00587902  0.63339836    -0.26000
C716        C  0.14582652  0.98170309  0.64173288     0.02600
C717        C  0.17129389  0.97432789  0.63300703     0.27400
C718        C  0.18499017  0.99084884  0.61537119    -0.25100
N719        N  0.13763706  0.04780243  0.60876866    -0.82500
H720        H  0.11534481  0.01143845  0.64005894     0.13200
C721        C  0.12951554  0.96367795  0.65824479     0.02600
N722        N  0.18305450  0.95000340  0.64197017    -0.81100
H723        H  0.20426044  0.98462964  0.60825535     0.18100
C724        C  0.12459036  0.93787913  0.64917167    -0.25900
C725        C  0.10722005  0.92094653  0.66272114     0.36100
C726        C  0.09367343  0.93040117  0.68538045    -0.20000
C727        C  0.09973108  0.95577375  0.69520929    -0.25200
C728        C  0.11764741  0.97242829  0.68197317     0.27500
H729        H  0.13385650  0.93112765  0.63101579     0.13200
N730        N  0.10317954  0.89432949  0.65337080    -0.82500
H731        H  0.08982114  0.96306878  0.71279190     0.18100
N732        N  0.12350368  0.99835682  0.69224316    -0.81100
H733        H  0.11445184  0.89069273  0.63636920     0.33700
H734        H  0.11026912  0.88150218  0.66798423     0.38200
H735        H  0.11299905  0.00183901  0.70975939     0.33700
H736        H  0.14362153  0.99874049  0.69720640     0.30400
H737        H  0.20179737  0.94736656  0.63353155     0.33700
H738        H  0.18592095  0.95162396  0.66242183     0.30400
H739        H  0.14978265  0.06266370  0.61662145     0.38200
H740        H  0.11896418  0.05032005  0.61738364     0.33700
C741        C  0.38794047  0.99370425  0.52602098    -0.20000
C742        C  0.36526254  0.97956508  0.51737564     0.36200
C743        C  0.34007775  0.98798253  0.52551611    -0.26000
C744        C  0.33713793  0.00980054  0.54236025     0.02600
C745        C  0.35958958  0.02326659  0.55191398     0.27400
C746        C  0.38483783  0.01499997  0.54375107    -0.25100
N747        N  0.36778519  0.95680106  0.50039824    -0.82500
H748        H  0.32256365  0.97763904  0.51856304     0.13200
C749        C  0.31021899  0.01896804  0.54877633     0.02600
N750        N  0.35657353  0.04560954  0.56934058    -0.81100
H751        H  0.40208232  0.02584719  0.55056752     0.18100
C752        C  0.29996414  0.01462540  0.57414296    -0.25900
C753        C  0.27384772  0.02193319  0.58039109     0.36100
C754        C  0.25777970  0.03377079  0.56065464    -0.20000
C755        C  0.26858028  0.03866465  0.53545751    -0.25200
C756        C  0.29462572  0.03133983  0.52932952     0.27500
H757        H  0.31230808  0.00520459  0.58895717     0.13200
N758        N  0.26370676  0.01732465  0.60660528    -0.82500
H759        H  0.25649358  0.04762444  0.52018649     0.18100
N760        N  0.30526811  0.03603052  0.50332407    -0.81100
H761        H  0.27794009  0.00805681  0.61844763     0.33700
H762        H  0.26001074  0.03579884  0.61522141     0.38200
H763        H  0.29112531  0.04504900  0.49118274     0.33700
H764        H  0.32089010  0.04951104  0.50529739     0.30400
H765        H  0.37509293  0.05326005  0.57466306     0.33700
H766        H  0.34682810  0.06050945  0.55878748     0.30400
H767        H  0.37765624  0.94211211  0.51113111     0.38200
H768        H  0.34915236  0.94907518  0.49559829     0.33700
C769        C  0.36054969  0.02757105  0.18743135    -0.20000
C770        C  0.34379542  0.00870915  0.19983332     0.36200
C771        C  0.32807840  0.99185221  0.18409360    -0.26000
C772        C  0.32822116  0.99381882  0.15641658     0.02600
C773        C  0.34407590  0.01310226  0.14404561     0.27400
C774        C  0.35994888  0.02976713  0.15961064    -0.25100
N775        N  0.34265644  0.00662831  0.22821273    -0.82500
H776        H  0.31553324  0.97713458  0.19341243     0.13200
C777        C  0.31214658  0.97524851  0.14035503     0.02600
N778        N  0.34438033  0.01530651  0.11563486    -0.81100
H779        H  0.37242608  0.04412533  0.14970308     0.18100
C780        C  0.29176584  0.98525693  0.12438138    -0.25900
C781        C  0.27770702  0.96867928  0.10696118     0.36100
C782        C  0.28402326  0.94143739  0.10582537    -0.20000
C783        C  0.30405626  0.93138355  0.12229923    -0.25200
C784        C  0.31820256  0.94802776  0.13957304     0.27500
H785        H  0.28734290  0.00624713  0.12503459     0.13200
N786        N  0.25780887  0.97961090  0.08977106    -0.82500
H787        H  0.30889539  0.91049490  0.12144408     0.18100
N788        N  0.33905903  0.93754957  0.15589172    -0.81100
H789        H  0.25551955  0.99989614  0.09326474     0.33700
H790        H  0.26463907  0.97770583  0.07030200     0.38200
H791        H  0.34088387  0.91711224  0.15308691     0.33700
H792        H  0.35688626  0.94601099  0.14956499     0.30400
H793        H  0.35693036  0.03065336  0.10962334     0.33700
H794        H  0.35239740  0.99778796  0.10803032     0.30400
H795        H  0.33428002  0.02415377  0.23540907     0.38200
H796        H  0.32993893  0.99130957  0.23393591     0.33700
C797        C  0.40971075  0.04834421  0.26978335    -0.20000
C798        C  0.42447092  0.06584927  0.28608281     0.36200
C799        C  0.43159102  0.05793733  0.31177248    -0.26000
C800        C  0.42429093  0.03306850  0.32163925     0.02600
C801        C  0.40890310  0.01590760  0.30584834     0.27400
C802        C  0.40164437  0.02378024  0.28020528    -0.25100
N803        N  0.43214329  0.09159656  0.27669400    -0.82500
H804        H  0.44298323  0.07122954  0.32423958     0.13200
C805        C  0.43345373  0.02500885  0.34832905     0.02600
N806        N  0.40125675  0.99029710  0.31568510    -0.81100
H807        H  0.39031679  0.01018231  0.26804029     0.18100
C808        C  0.41475725  0.01783098  0.36754351    -0.25900
C809        C  0.42271119  0.00920964  0.39274713     0.36100
C810        C  0.45010692  0.00768416  0.39880498    -0.20000
C811        C  0.46871690  0.01570706  0.37974999    -0.25200
C812        C  0.46069783  0.02410803  0.35450746     0.27500
H813        H  0.39383707  0.01901853  0.36281176     0.13200
N814        N  0.40303904  0.00222402  0.41215220    -0.82500
H815        H  0.48968614  0.01465590  0.38425311     0.18100
N816        N  0.48012512  0.03116008  0.33490098    -0.81100
H817        H  0.38395125  0.00396057  0.40427506     0.33700
H818        H  0.40433577  0.01599879  0.42759277     0.38200
H819        H  0.49928179  0.02956761  0.34264542     0.33700
H820        H  0.47876802  0.01736971  0.31948779     0.30400
H821        H  0.38985026  0.98013589  0.30166332     0.33700
H822        H  0.41854250  0.97923128  0.31842498     0.30400
H823        H  0.41481298  0.10264199  0.27415228     0.38200
H824        H  0.44347282  0.10159296  0.29089387     0.33700
C825        C  0.79319650  0.86842162  0.45139531    -0.20000
C826        C  0.81803248  0.85820362  0.44338987     0.36200
C827        C  0.83093712  0.83941545  0.45917162    -0.26000
C828        C  0.81949881  0.83027490  0.48273671     0.02600
C829        C  0.79433113  0.83961282  0.49039914     0.27400
C830        C  0.78145898  0.85861308  0.47469841    -0.25100
N831        N  0.83025897  0.86663420  0.41921073    -0.82500
H832        H  0.85030595  0.83228645  0.45322185     0.13200
C833        C  0.83496839  0.81224323  0.49992014     0.02600
N834        N  0.78208495  0.82988337  0.51419152    -0.81100
H835        H  0.76237734  0.86611092  0.48103408     0.18100
C836        C  0.84177162  0.82065757  0.52547172    -0.25900
C837        C  0.85855195  0.80549233  0.54160387     0.36100
C838        C  0.86926378  0.78147782  0.53167900    -0.20000
C839        C  0.86136007  0.77256601  0.50645130    -0.25200
C840        C  0.84429554  0.78769288  0.49051092     0.27500
H841        H  0.83443654  0.83952959  0.53261612     0.13200
N842        N  0.86490505  0.81464909  0.56784514    -0.82500
H843        H  0.86918340  0.75415700  0.49869258     0.18100
N844        N  0.83673206  0.77849236  0.46462055    -0.81100
H845        H  0.85583846  0.83285368  0.57174930     0.33700
H846        H  0.85687258  0.80108358  0.58126311     0.38200
H847        H  0.84540655  0.76013060  0.46056552     0.33700
H848        H  0.81623103  0.77545764  0.46479465     0.30400
H849        H  0.76363348  0.83883627  0.51711470     0.33700
H850        H  0.77848967  0.80965989  0.51152358     0.30400
H851        H  0.84880966  0.87468174  0.42378801     0.38200
H852        H  0.83323928  0.84994953  0.40728627     0.33700
C853        C  0.79658912  0.94198737  0.38787284    -0.20000
C854        C  0.78625744  0.95124034  0.36358040     0.36200
C855        C  0.80243484  0.96655115  0.34685120    -0.26000
C856        C  0.82858842  0.97271956  0.35396813     0.02600
C857        C  0.83888050  0.96359840  0.37823766     0.27400
C858        C  0.82279388  0.94827365  0.39490913    -0.25100
N859        N  0.75965209  0.94466999  0.35575363    -0.82500
H860        H  0.79467199  0.97374291  0.32818227     0.13200
C861        C  0.84494759  0.98920114  0.33610845     0.02600
N862        N  0.86566347  0.96986883  0.38574998    -0.81100
H863        H  0.83073574  0.94126375  0.41357482     0.18100
C864        C  0.85327563  0.01413708  0.34484562    -0.25900
C865        C  0.86947312  0.03014501  0.32903726     0.36100
C866        C  0.87776329  0.02111200  0.30379364    -0.20000
C867        C  0.86880004  0.99620794  0.29488124    -0.25200
C868        C  0.85262471  0.98010643  0.31086337     0.27500
H869        H  0.84716476  0.02123617  0.36418377     0.13200
N870        N  0.87714766  0.05563500  0.33880090    -0.82500
H871        H  0.87494160  0.98889159  0.27565976     0.18100
N872        N  0.84437009  0.95437968  0.30181100    -0.81100
H873        H  0.88729765  0.05299081  0.35666398     0.33700
H874        H  0.85996446  0.06652170  0.34272259     0.38200
H875        H  0.85163512  0.95066343  0.28276758     0.33700
H876        H  0.85301526  0.94030842  0.31428643     0.30400
H877        H  0.87010580  0.96186438  0.40431956     0.33700
H878        H  0.87830061  0.96069041  0.37213647     0.30400
H879        H  0.75878242  0.92414886  0.35306974     0.38200
H880        H  0.75512618  0.95317937  0.33743487     0.33700
C881        C  0.57656553  0.94998402  0.45814172    -0.20000
C882        C  0.59422344  0.96944595  0.44824040     0.36200
C883        C  0.62045412  0.96233627  0.44209394    -0.26000
C884        C  0.62959774  0.93639316  0.44582454     0.02600
C885        C  0.61208000  0.91695525  0.45556553     0.27400
C886        C  0.58585070  0.92394759  0.46165227    -0.25100
N887        N  0.58583554  0.99646441  0.44506270    -0.82500
H888        H  0.63412459  0.97731108  0.43503416     0.13200
C889        C  0.65787836  0.93017844  0.44050541     0.02600
N890        N  0.62101422  0.89017209  0.45921205    -0.81100
H891        H  0.57257580  0.90885531  0.46917362     0.18100
C892        C  0.67348699  0.91974521  0.46095874    -0.25900
C893        C  0.70050310  0.91430777  0.45714296     0.36100
C894        C  0.71225003  0.91949836  0.43221318    -0.20000
C895        C  0.69659499  0.93007926  0.41178584    -0.25200
C896        C  0.66948050  0.93522826  0.41559486     0.27500
H897        H  0.66460919  0.91629617  0.48019759     0.13200
N898        N  0.71608132  0.90414143  0.47871247    -0.82500
H899        H  0.70544238  0.93392919  0.39261252     0.18100
N900        N  0.65360379  0.94531797  0.39422386    -0.81100
H901        H  0.72996104  0.91866222  0.48384303     0.33700
H902        H  0.70431040  0.90104856  0.49547358     0.38200
H903        H  0.66513065  0.94800783  0.37722447     0.33700
H904        H  0.63943517  0.93091884  0.38956914     0.30400
H905        H  0.60577269  0.87833339  0.46674997     0.33700
H906        H  0.62578372  0.88254273  0.44054765     0.30400
H907        H  0.58232579  0.00418101  0.46397596     0.38200
H908        H  0.60099795  0.00793486  0.43682800     0.33700
C909        C  0.66545120  0.00270943  0.88310262    -0.20000
C910        C  0.67992246  0.98739024  0.86443319     0.36200
C911        C  0.66619448  0.97078617  0.84666776    -0.26000
C912        C  0.63850809  0.96932051  0.84700828     0.02600
C913        C  0.62402191  0.98484997  0.86503717     0.27400
C914        C  0.63757033  0.00130546  0.88286625    -0.25100
N915        N  0.70837382  0.98859939  0.86345572    -0.82500
H916        H  0.67709428  0.95873798  0.83262442     0.13200
C917        C  0.62457330  0.95067232  0.82923726     0.02600
N918        N  0.59554093  0.98354639  0.86532178    -0.81100
H919        H  0.62612508  0.01280943  0.89690442     0.18100
C920        C  0.61314813  0.92801286  0.84025511    -0.25900
C921        C  0.59689613  0.91137992  0.82512327     0.36100
C922        C  0.59152291  0.91765432  0.79828781    -0.20000
C923        C  0.60443570  0.93963545  0.78690340    -0.25200
C924        C  0.62084202  0.95627420  0.80218831     0.27500
H925        H  0.61635193  0.92355820  0.86101710     0.13200
N926        N  0.58572254  0.88835480  0.83737112    -0.82500
H927        H  0.60090556  0.94457093  0.76633080     0.18100
N928        N  0.63308962  0.97921561  0.79060676    -0.81100
H929        H  0.60125241  0.87658667  0.84437167     0.33700
H930        H  0.57443607  0.89447772  0.85363509     0.38200
H931        H  0.62849599  0.98046145  0.77044470     0.33700
H932        H  0.62487759  0.99595630  0.79962635     0.30400
H933        H  0.58780244  0.99597479  0.87998582     0.33700
H934        H  0.58875149  0.99084165  0.84717312     0.30400
H935        H  0.71357683  0.00759866  0.85708185     0.38200
H936        H  0.71580333  0.97543825  0.84928057     0.33700
C937        C  0.54335331  0.90204912  0.71421487    -0.20000
C938        C  0.52897702  0.88484360  0.69725032     0.36200
C939        C  0.52373221  0.89262583  0.67107501    -0.26000
C940        C  0.53268323  0.91698475  0.66142595     0.02600
C941        C  0.54778218  0.93376795  0.67780124     0.27400
C942        C  0.55301599  0.92613931  0.70403665    -0.25100
N943        N  0.51972964  0.85956597  0.70653115    -0.82500
H944        H  0.51223263  0.87983171  0.65818781     0.13200
C945        C  0.52478406  0.92527603  0.63453898     0.02600
N946        N  0.55735361  0.95863602  0.66777212    -0.81100
H947        H  0.56413002  0.93942171  0.71674401     0.18100
C948        C  0.50559824  0.94506533  0.63186317    -0.25900
C949        C  0.49660340  0.95296102  0.60678821     0.36100
C950        C  0.50770694  0.94122848  0.58380097    -0.20000
C951        C  0.52681406  0.92114404  0.58669749    -0.25200
C952        C  0.53541775  0.91302845  0.61187301     0.27500
H953        H  0.49723551  0.95399584  0.64952125     0.13200
N954        N  0.47596095  0.97247826  0.60473378    -0.82500
H955        H  0.53537736  0.91196654  0.56927959     0.18100
N956        N  0.55496620  0.89251788  0.61457746    -0.81100
H957        H  0.47043031  0.97936952  0.62347879     0.33700
H958        H  0.45927330  0.96307824  0.59678086     0.38200
H959        H  0.56067804  0.88539579  0.59597379     0.33700
H960        H  0.57183338  0.90101806  0.62312842     0.30400
H961        H  0.56800946  0.96878462  0.68237947     0.33700
H962        H  0.57072131  0.95449231  0.65249352     0.30400
H963        H  0.53640665  0.84796748  0.71054293     0.38200
H964        H  0.50909390  0.84969220  0.69172165     0.33700
C965        C  0.36628358  0.66171523  0.44936643    -0.20000
C966        C  0.35077911  0.67330927  0.46970442     0.36200
C967        C  0.33565625  0.65713383  0.48650538    -0.26000
C968        C  0.33527353  0.62962863  0.48319125     0.02600
C969        C  0.34964425  0.61796172  0.46235904     0.27400
C970        C  0.36488497  0.63407424  0.44562437    -0.25100
N971        N  0.35027556  0.70140146  0.47358062    -0.82500
H972        H  0.32424645  0.66608723  0.50235019     0.13200
C973        C  0.32019242  0.61302702  0.50194603     0.02600
N974        N  0.34904196  0.58972482  0.45860659    -0.81100
H975        H  0.37622386  0.62473651  0.42999539     0.18100
C976        C  0.29708455  0.60039639  0.49324279    -0.25900
C977        C  0.28327981  0.58297274  0.50984370     0.36100
C978        C  0.29279170  0.57796153  0.53571068    -0.20000
C979        C  0.31576422  0.59107114  0.54450310    -0.25200
C980        C  0.32955588  0.60860585  0.52785534     0.27500
H981        H  0.29000525  0.60371878  0.47324327     0.13200
N982        N  0.26021826  0.56969337  0.49990611    -0.82500
H983        H  0.32313048  0.58743367  0.56433162     0.18100
N984        N  0.35324743  0.62160839  0.53693506    -0.81100
H985        H  0.26564532  0.55902875  0.48298625     0.33700
H986        H  0.24641473  0.58406191  0.49428734     0.38200
H987        H  0.35736111  0.61637690  0.55654828     0.33700
H988        H  0.36903729  0.61460780  0.52549810     0.30400
H989        H  0.36052565  0.58426366  0.44224856     0.33700
H990        H  0.35786502  0.58102855  0.47519570     0.30400
H991        H  0.35661351  0.70543779  0.49289452     0.38200
H992        H  0.33065488  0.70780264  0.47177906     0.33700
C993        C  0.41337728  0.74566289  0.42957732    -0.20000
C994        C  0.43303880  0.76031593  0.41583603     0.36200
C995        C  0.43893576  0.78624649  0.42366824    -0.26000
C996        C  0.42560122  0.79815572  0.44479898     0.02600
C997        C  0.40554883  0.78418205  0.45819905     0.27400
C998        C  0.39954924  0.75811196  0.45040873    -0.25100
N999        N  0.44729790  0.74912628  0.39398613    -0.82500
H1000       H  0.45421818  0.79716355  0.41323975     0.13200
C1001       C  0.43342117  0.82516222  0.45286523     0.02600
N1002       N  0.39172136  0.79638327  0.47991359    -0.81100
H1003       H  0.38438340  0.74736866  0.46111325     0.18100
C1004       C  0.41628687  0.84632425  0.44789408    -0.25900
C1005       C  0.42358446  0.87245201  0.45423528     0.36100
C1006       C  0.44889483  0.87745321  0.46557192    -0.20000
C1007       C  0.46580770  0.85589994  0.47070860    -0.25200
C1008       C  0.45827969  0.82985860  0.46456799     0.27500
H1009       H  0.39718072  0.84238854  0.43887885     0.13200
N1010       N  0.40534423  0.89370296  0.44909830    -0.82500
H1011       H  0.48510217  0.85929462  0.47949705     0.18100
N1012       N  0.47579315  0.80809238  0.47004841    -0.81100
H1013       H  0.38833290  0.88666093  0.43955552     0.33700
H1014       H  0.39907102  0.90107628  0.46742061     0.38200
H1015       H  0.49344730  0.81488016  0.47854351     0.33700
H1016       H  0.46661000  0.79612022  0.48422673     0.30400
H1017       H  0.37745872  0.78348049  0.48762072     0.33700
H1018       H  0.40549079  0.79974823  0.49503411     0.30400
H1019       H  0.44421654  0.76110030  0.37738741     0.38200
H1020       H  0.46751510  0.74950436  0.39854004     0.33700
C1021       C  0.67375860  0.37038740  0.44000999    -0.20000
C1022       C  0.68628394  0.34827152  0.45184628     0.36200
C1023       C  0.67112030  0.33042629  0.46705377    -0.26000
C1024       C  0.64379074  0.33411989  0.47039201     0.02600
C1025       C  0.63108147  0.35533450  0.45759586     0.27400
C1026       C  0.64613718  0.37322077  0.44256533    -0.25100
N1027       N  0.71423928  0.34397919  0.44843447    -0.82500
H1028       H  0.68067586  0.31385680  0.47675533     0.13200
C1029       C  0.62868028  0.31671805  0.48855777     0.02600
N1030       N  0.60294238  0.35886381  0.46039727    -0.81100
H1031       H  0.63625611  0.38992050  0.43344506     0.18100
C1032       C  0.62043787  0.32698602  0.51295600    -0.25900
C1033       C  0.60462915  0.31205152  0.53032605     0.36100
C1034       C  0.59627408  0.28624544  0.52279804    -0.20000
C1035       C  0.60538186  0.27579295  0.49851557    -0.25200
C1036       C  0.62144494  0.29079081  0.48134108     0.27500
H1037       H  0.62634703  0.34690944  0.51839909     0.13200
N1038       N  0.59712784  0.32317346  0.55546833    -0.82500
H1039       H  0.59940583  0.25608556  0.49247191     0.18100
N1040       N  0.63001384  0.28002444  0.45639590    -0.81100
H1041       H  0.60426650  0.34252199  0.55745036     0.33700
H1042       H  0.60642258  0.31200898  0.57021503     0.38200
H1043       H  0.62310238  0.26063216  0.45407399     0.33700
H1044       H  0.62124256  0.29123430  0.44136702     0.30400
H1045       H  0.59661793  0.37556860  0.44995506     0.33700
H1046       H  0.59367041  0.34253848  0.45159983     0.30400
H1047       H  0.71757674  0.34033882  0.42831027     0.38200
H1048       H  0.72029945  0.32698791  0.45857240     0.33700
C1049       C  0.54786545  0.20267038  0.54013908    -0.20000
C1050       C  0.56752164  0.18508503  0.53094152     0.36200
C1051       C  0.56086151  0.15868637  0.52522123    -0.26000
C1052       C  0.53477814  0.14947982  0.52826123     0.02600
C1053       C  0.51496394  0.16712826  0.53712164     0.27400
C1054       C  0.52178144  0.19341470  0.54325454    -0.25100
N1055       N  0.59444282  0.19366999  0.52821253    -0.82500
H1056       H  0.57625407  0.14518874  0.51876239     0.13200
C1057       C  0.52849839  0.12122492  0.52272499     0.02600
N1058       N  0.48796654  0.15831824  0.53964651    -0.81100
H1059       H  0.50652714  0.20687099  0.55011747     0.18100
C1060       C  0.51679489  0.10587058  0.54266272    -0.25900
C1061       C  0.50963576  0.07934264  0.53819088     0.36100
C1062       C  0.51401583  0.06784443  0.51290075    -0.20000
C1063       C  0.52666544  0.08309061  0.49326788    -0.25200
C1064       C  0.53387129  0.10961287  0.49788205     0.27500
H1065       H  0.51331226  0.11468510  0.56194017     0.13200
N1066       N  0.49797306  0.06422232  0.55932116    -0.82500
H1067       H  0.53042506  0.07453330  0.47394198     0.18100
N1068       N  0.54612694  0.12495084  0.47726004    -0.81100
H1069       H  0.49528161  0.07595525  0.57619362     0.33700
H1070       H  0.51153066  0.04948554  0.56457970     0.38200
H1071       H  0.54892262  0.11344446  0.46025011     0.33700
H1072       H  0.53300435  0.14010157  0.47209916     0.30400
H1073       H  0.47587139  0.17367090  0.54650873     0.33700
H1074       H  0.48116609  0.15339645  0.52069861     0.30400
H1075       H  0.60020051  0.19059938  0.50854772     0.38200
H1076       H  0.60629364  0.18175309  0.54029250     0.33700
C1077       C  0.51675168  0.17121841  0.10697418    -0.20000
C1078       C  0.52589936  0.15087666  0.12381086     0.36200
C1079       C  0.50795535  0.13818491  0.14081165    -0.26000
C1080       C  0.48128462  0.14572590  0.14154457     0.02600
C1081       C  0.47240310  0.16708344  0.12603668     0.27400
C1082       C  0.49033773  0.17982086  0.10898085    -0.25100
N1083       N  0.55328271  0.14307187  0.12342435    -0.82500
H1084       H  0.51457897  0.12186906  0.15306295     0.13200
C1085       C  0.46253778  0.12929271  0.15671061     0.02600
N1086       N  0.44512610  0.17522538  0.12718674    -0.81100
H1087       H  0.48332881  0.19557652  0.09623253     0.18100
C1088       C  0.45563946  0.13646069  0.18261622    -0.25900
C1089       C  0.43894298  0.12018424  0.19788356     0.36100
C1090       C  0.42919882  0.09633690  0.18685943    -0.20000
C1091       C  0.43581567  0.08961800  0.16067374    -0.25200
C1092       C  0.45245297  0.10583049  0.14551841     0.27500
H1093       H  0.46348803  0.15464186  0.19094137     0.13200
N1094       N  0.43171033  0.12787054  0.22433166    -0.82500
H1095       H  0.42847617  0.07130445  0.15217282     0.18100
N1096       N  0.45966933  0.09834130  0.11897920    -0.81100
H1097       H  0.41125082  0.13113470  0.22452304     0.33700
H1098       H  0.44065542  0.14586113  0.22942487     0.38200
H1099       H  0.45096198  0.08024469  0.11386143     0.33700
H1100       H  0.45179386  0.11249223  0.10609985     0.30400
H1101       H  0.44187031  0.19138272  0.11467593     0.33700
H1102       H  0.43354216  0.15967401  0.11986165     0.30400
H1103       H  0.56450012  0.15927381  0.12986468     0.38200
H1104       H  0.55670580  0.12777718  0.13693401     0.33700
C1105       C  0.58099710  0.15668158  0.03502959    -0.20000
C1106       C  0.59047798  0.13226628  0.04510877     0.36200
C1107       C  0.60520459  0.11536799  0.02855364    -0.26000
C1108       C  0.61112498  0.12242642  0.00236113     0.02600
C1109       C  0.60183819  0.14672354  0.99229518     0.27400
C1110       C  0.58687253  0.16351901  0.00867079    -0.25100
N1111       N  0.58554517  0.12479296  0.07213287    -0.82500
H1112       H  0.61232366  0.09661794  0.03616023     0.13200
C1113       C  0.62750678  0.10442023  0.98582010     0.02600
N1114       N  0.60780027  0.15431933  0.96550506    -0.81100
H1115       H  0.57959135  0.18200611  0.00063041     0.18100
C1116       C  0.61735543  0.09489290  0.96177646    -0.25900
C1117       C  0.63249996  0.07839949  0.94530911     0.36100
C1118       C  0.65830774  0.07070016  0.95316509    -0.20000
C1119       C  0.66836457  0.08030934  0.97735605    -0.25200
C1120       C  0.65333055  0.09717758  0.99364172     0.27500
H1121       H  0.59753324  0.10043830  0.95564549     0.13200
N1122       N  0.62164465  0.07003126  0.92043618    -0.82500
H1123       H  0.68805355  0.07463757  0.98371910     0.18100
N1124       N  0.66427912  0.10722173  0.01797238    -0.81100
H1125       H  0.61701583  0.08691494  0.90940202     0.33700
H1126       H  0.60403073  0.05976127  0.92415163     0.38200
H1127       H  0.68344713  0.09994319  0.02092641     0.33700
H1128       H  0.66600203  0.12776776  0.01608737     0.30400
H1129       H  0.59932382  0.17267637  0.96107076     0.33700
H1130       H  0.62832788  0.15675998  0.96408963     0.30400
H1131       H  0.59581945  0.13812388  0.08423915     0.38200
H1132       H  0.59335163  0.10603851  0.07610808     0.33700
C1133       C  0.51335810  0.37919131  0.01486096    -0.20000
C1134       C  0.49475863  0.36272101  0.02774996     0.36200
C1135       C  0.50178802  0.33661868  0.03415710    -0.26000
C1136       C  0.52702650  0.32665522  0.02815540     0.02600
C1137       C  0.54555730  0.34298777  0.01507815     0.27400
C1138       C  0.53839440  0.36902882  0.00823064    -0.25100
N1139       N  0.46868269  0.37242852  0.03393890    -0.82500
H1140       H  0.48747726  0.32387257  0.04384142     0.13200
C1141       C  0.53357385  0.29907379  0.03592432     0.02600
N1142       N  0.57167958  0.33322376  0.00929559    -0.81100
H1143       H  0.55263974  0.38169172  0.99835109     0.18100
C1144       C  0.54025471  0.28046526  0.01637837    -0.25900
C1145       C  0.54454166  0.25370799  0.02285690     0.36100
C1146       C  0.54238524  0.24551207  0.04958019    -0.20000
C1147       C  0.53616026  0.26435647  0.06911545    -0.25200
C1148       C  0.53186642  0.29102131  0.06259554     0.27500
H1149       H  0.54127680  0.28671174  0.99587348     0.13200
N1150       N  0.55014665  0.23480010  0.00228284    -0.82500
H1151       H  0.53469821  0.25826970  0.08963988     0.18100
N1152       N  0.52570039  0.31001276  0.08293308    -0.81100
H1153       H  0.55129598  0.24413630  0.98384553     0.33700
H1154       H  0.53409476  0.22171826  0.00125068     0.38200
H1155       H  0.52503413  0.30089929  0.10150996     0.33700
H1156       H  0.54121756  0.32373410  0.08361492     0.30400
H1157       H  0.58291672  0.34772289  0.99967967     0.33700
H1158       H  0.58110138  0.32949836  0.02736107     0.30400
H1159       H  0.45903242  0.37634372  0.01603242     0.38200
H1160       H  0.45751705  0.35788734  0.04357175     0.33700
C1161       C  0.11380517  0.27375233  0.95108939    -0.20000
C1162       C  0.12602173  0.29801969  0.94406191     0.36200
C1163       C  0.14146470  0.31161338  0.96283722    -0.26000
C1164       C  0.14552908  0.30136133  0.98828777     0.02600
C1165       C  0.13425410  0.27678323  0.99511706     0.27400
C1166       C  0.11851243  0.26326374  0.97650367    -0.25100
N1167       N  0.12291728  0.30880554  0.91793378    -0.82500
H1168       H  0.15017004  0.33055622  0.95771236     0.13200
C1169       C  0.16049637  0.31744529  0.00785538     0.02600
N1170       N  0.13867311  0.26579375  0.02100052    -0.81100
H1171       H  0.10943587  0.24467194  0.98217004     0.18100
C1172       C  0.14770186  0.32588430  0.03098349    -0.25900
C1173       C  0.15999424  0.34358027  0.04863381     0.36100
C1174       C  0.18554728  0.35369665  0.04259945    -0.20000
C1175       C  0.19883646  0.34395922  0.02007012    -0.25200
C1176       C  0.18661701  0.32586919  0.00274835     0.27500
H1177       H  0.12769287  0.31913324  0.03492745     0.13200
N1178       N  0.14636694  0.35145823  0.07239021    -0.82500
H1179       H  0.21855938  0.35103769  0.01541169     0.18100
N1180       N  0.20040756  0.31634057  0.97970998    -0.81100
H1181       H  0.12760502  0.34270428  0.07340241     0.33700
H1182       H  0.15716586  0.34412298  0.08846389     0.38200
H1183       H  0.21943328  0.32450641  0.97870318     0.33700
H1184       H  0.20283639  0.29589893  0.98189124     0.30400
H1185       H  0.12887169  0.24764558  0.02295877     0.33700
H1186       H  0.15893608  0.26184722  0.02273780     0.30400
H1187       H  0.13269086  0.32699971  0.91626162     0.38200
H1188       H  0.13224330  0.29586814  0.90471233     0.33700
C1189       C  0.17645237  0.42689103  0.10673599    -0.20000
C1190       C  0.18678288  0.44652978  0.12404763     0.36200
C1191       C  0.16926049  0.46232987  0.13883791    -0.26000
C1192       C  0.14182888  0.45865167  0.13714750     0.02600
C1193       C  0.13145845  0.43859912  0.12082676     0.27400
C1194       C  0.14880580  0.42303510  0.10570222    -0.25100
N1195       N  0.21487722  0.45040248  0.12676125    -0.82500
H1196       H  0.17698207  0.47767045  0.15175740     0.13200
C1197       C  0.12408036  0.47612409  0.15247204     0.02600
N1198       N  0.10331405  0.43423993  0.11964147    -0.81100
H1199       H  0.14050434  0.40803164  0.09278338     0.18100
C1200       C  0.10888389  0.49497677  0.13906063    -0.25900
C1201       C  0.09167403  0.51187166  0.15283115     0.36100
C1202       C  0.08949347  0.50990665  0.18076237    -0.20000
C1203       C  0.10501311  0.49089298  0.19405084    -0.25200
C1204       C  0.12217469  0.47394776  0.18016403     0.27500
H1205       H  0.11039385  0.49657253  0.11769616     0.13200
N1206       N  0.07636962  0.53070249  0.13816580    -0.82500
H1207       H  0.10369062  0.48900604  0.21537706     0.18100
N1208       N  0.13752282  0.45436693  0.19398521    -0.81100
H1209       H  0.06483256  0.52038287  0.12437145     0.33700
H1210       H  0.08944103  0.54295079  0.12776427     0.38200
H1211       H  0.13394215  0.45537223  0.21436432     0.33700
H1212       H  0.13097049  0.43573019  0.18771700     0.30400
H1213       H  0.09884843  0.41879235  0.10655585     0.33700
H1214       H  0.09715144  0.42804637  0.13841614     0.30400
H1215       H  0.22267453  0.43337779  0.13556726     0.38200
H1216       H  0.21898047  0.46609467  0.13967185     0.33700
C1217       C  0.26215540  0.41205581  0.06125664    -0.20000
C1218       C  0.27241670  0.43701055  0.06930067     0.36200
C1219       C  0.29880448  0.44350761  0.06345325    -0.26000
C1220       C  0.31489596  0.42629510  0.04889595     0.02600
C1221       C  0.30487481  0.40163036  0.04058951     0.27400
C1222       C  0.27874719  0.39462864  0.04711396    -0.25100
N1223       N  0.25602793  0.45607844  0.08267002    -0.82500
H1224       H  0.30673214  0.46249956  0.06962792     0.13200
C1225       C  0.34179234  0.43503057  0.04131588     0.02600
N1226       N  0.32113127  0.38403630  0.02515445    -0.81100
H1227       H  0.27126985  0.37553471  0.04076617     0.18100
C1228       C  0.36381906  0.42066807  0.05010602    -0.25900
C1229       C  0.38962367  0.42814643  0.04285203     0.36100
C1230       C  0.39327711  0.45037095  0.02609685    -0.20000
C1231       C  0.37110157  0.46484330  0.01765720    -0.25200
C1232       C  0.34540773  0.45742163  0.02510364     0.27500
H1233       H  0.36080122  0.40357194  0.06271237     0.13200
N1234       N  0.41185634  0.41269042  0.05171367    -0.82500
H1235       H  0.37379794  0.48195292  0.00500687     0.18100
N1236       N  0.32290015  0.47226687  0.01594085    -0.81100
H1237       H  0.40541732  0.39575962  0.06174254     0.33700
H1238       H  0.42213127  0.42401833  0.06570535     0.38200
H1239       H  0.32897850  0.48830019  0.00434289     0.33700
H1240       H  0.31178686  0.45986467  0.00359079     0.30400
H1241       H  0.31080886  0.36664394  0.02062696     0.33700
H1242       H  0.32513218  0.39336959  0.00711160     0.30400
H1243       H  0.24172452  0.46249981  0.06913526     0.38200
H1244       H  0.26698535  0.47285129  0.08799109     0.33700
C1245       C  0.43158487  0.78332531  0.88236915    -0.20000
C1246       C  0.44179251  0.77065610  0.85947587     0.36200
C1247       C  0.45814944  0.78493036  0.84198920    -0.26000
C1248       C  0.46402299  0.81162802  0.84657938     0.02600
C1249       C  0.45327936  0.82459567  0.86879466     0.27400
C1250       C  0.43711560  0.81037112  0.88640822    -0.25100
N1251       N  0.43531165  0.74352564  0.85381394    -0.82500
H1252       H  0.46637113  0.77524527  0.82467133     0.13200
C1253       C  0.48217540  0.82574433  0.82847724     0.02600
N1254       N  0.45899774  0.85212766  0.87341974    -0.81100
H1255       H  0.42936776  0.82037550  0.90375063     0.18100
C1256       C  0.47170927  0.84111156  0.80789127    -0.25900
C1257       C  0.48836190  0.85654062  0.79171143     0.36100
C1258       C  0.51599650  0.85644312  0.79637482    -0.20000
C1259       C  0.52637969  0.84041342  0.81658348    -0.25200
C1260       C  0.50974264  0.82499277  0.83263560     0.27500
H1261       H  0.45044005  0.84155155  0.80492322     0.13200
N1262       N  0.47721987  0.87294263  0.77129604    -0.82500
H1263       H  0.54757867  0.84015842  0.82005461     0.18100
N1264       N  0.52065854  0.80871001  0.85327344    -0.81100
H1265       H  0.45666024  0.87047979  0.77036089     0.33700
H1266       H  0.48057699  0.89268208  0.77662381     0.38200
H1267       H  0.54133960  0.81008649  0.85346053     0.33700
H1268       H  0.51409826  0.81624103  0.87142250     0.30400
H1269       H  0.44929922  0.85882886  0.89046086     0.33700
H1270       H  0.47930905  0.85386002  0.87714508     0.30400
H1271       H  0.41492191  0.74261202  0.85018789     0.38200
H1272       H  0.44466844  0.73718895  0.83644875     0.33700
C1273       C  0.29116579  0.86997034  0.03993873    -0.20000
C1274       C  0.31874141  0.87396562  0.03615463     0.36200
C1275       C  0.33315933  0.85596928  0.02058923    -0.26000
C1276       C  0.32075813  0.83428023  0.00852846     0.02600
C1277       C  0.29354768  0.82978443  0.01271410     0.27400
C1278       C  0.27901060  0.84767060  0.02838160    -0.25100
N1279       N  0.33195604  0.89662364  0.04733841    -0.82500
H1280       H  0.35413488  0.85920305  0.01723382     0.13200
C1281       C  0.33641707  0.81741499  0.99035126     0.02600
N1282       N  0.28075605  0.80732823  0.00070169    -0.81100
H1283       H  0.25801695  0.84428405  0.03137437     0.18100
C1284       C  0.34310224  0.79159978  0.99782395    -0.25900
C1285       C  0.35937547  0.77571232  0.98166386     0.36100
C1286       C  0.36861794  0.78577064  0.95706532    -0.20000
C1287       C  0.36143230  0.81166911  0.94967486    -0.25200
C1288       C  0.34548522  0.82752512  0.96603163     0.27500
H1289       H  0.33617915  0.78412444  0.01671416     0.13200
N1290       N  0.36696449  0.74978643  0.99058993    -0.82500
H1291       H  0.36818184  0.81967695  0.93095880     0.18100
N1292       N  0.33844150  0.85394394  0.95811166    -0.81100
H1293       H  0.35777944  0.74523488  0.00858822     0.33700
H1294       H  0.38733234  0.75028078  0.99440118     0.38200
H1295       H  0.34686073  0.85854100  0.93975643     0.33700
H1296       H  0.31788667  0.85442411  0.95550890     0.30400
H1297       H  0.26069696  0.80674602  0.00587709     0.33700
H1298       H  0.28149698  0.80989205  0.98016396     0.30400
H1299       H  0.32452146  0.91345346  0.03786593     0.38200
H1300       H  0.35226761  0.89609382  0.04325094     0.33700
C1301       C  0.45220408  0.57057706  0.96600303    -0.20000
C1302       C  0.46223435  0.59387503  0.97814281     0.36200
C1303       C  0.45194913  0.61868767  0.97083672    -0.26000
C1304       C  0.43215821  0.62100115  0.95150076     0.02600
C1305       C  0.42208577  0.59798767  0.93932248     0.27400
C1306       C  0.43212199  0.57305628  0.94673203    -0.25100
N1307       N  0.48245581  0.59243637  0.99816478    -0.82500
H1308       H  0.45971364  0.63649324  0.98002340     0.13200
C1309       C  0.42261237  0.64784326  0.94413443     0.02600
N1310       N  0.40160261  0.60004260  0.91962647    -0.81100
H1311       H  0.42425249  0.55546103  0.93726166     0.18100
C1312       C  0.42652351  0.65717660  0.91827427    -0.25900
C1313       C  0.41994869  0.68334723  0.91127380     0.36100
C1314       C  0.40965457  0.70074003  0.93076329    -0.20000
C1315       C  0.40468961  0.69082402  0.95633437    -0.25200
C1316       C  0.41097532  0.66461975  0.96316597     0.27500
H1317       H  0.43524126  0.64410784  0.90363243     0.13200
N1318       N  0.42371732  0.69219250  0.88449696    -0.82500
H1319       H  0.39654044  0.70373802  0.97140009     0.18100
N1320       N  0.40593592  0.65502288  0.98949366    -0.81100
H1321       H  0.43176722  0.67709789  0.87280622     0.33700
H1322       H  0.40499786  0.69634922  0.87665319     0.38200
H1323       H  0.39745940  0.66986184  0.00121062     0.33700
H1324       H  0.39186693  0.63987608  0.98801517     0.30400
H1325       H  0.39638952  0.58129339  0.91250183     0.33700
H1326       H  0.38475275  0.60776145  0.92888520     0.30400
H1327       H  0.50017229  0.58737936  0.98869909     0.38200
H1328       H  0.48570543  0.61104949  0.00668541     0.33700
C1329       C  0.80373132  0.56388943  0.95065648    -0.20000
C1330       C  0.83183968  0.56502970  0.94890852     0.36200
C1331       C  0.84578140  0.58413246  0.96366989    -0.26000
C1332       C  0.83254028  0.60191606  0.98030911     0.02600
C1333       C  0.80474824  0.60112339  0.98202881     0.27400
C1334       C  0.79062717  0.58224541  0.96714813    -0.25100
N1335       N  0.84633440  0.54668261  0.93261744    -0.82500
H1336       H  0.86723139  0.58485781  0.96265275     0.13200
C1337       C  0.84828847  0.62018287  0.99703854     0.02600
N1338       N  0.79103491  0.61930291  0.99914532    -0.81100
H1339       H  0.76922215  0.58182587  0.96867477     0.18100
C1340       C  0.84900384  0.64725775  0.99113964    -0.25900
C1341       C  0.86473424  0.66489524  0.00606308     0.36100
C1342       C  0.87977010  0.65513799  0.02776446    -0.20000
C1343       C  0.87837896  0.62787980  0.03370003    -0.25200
C1344       C  0.86286505  0.61041778  0.01862316     0.27500
H1345       H  0.83764097  0.65452699  0.97444689     0.13200
N1346       N  0.86544909  0.69245469  0.99900125    -0.82500
H1347       H  0.88951190  0.61991107  0.05019854     0.18100
N1348       N  0.86182495  0.58270886  0.02510498    -0.81100
H1349       H  0.85195943  0.69643912  0.98379176     0.33700
H1350       H  0.88423701  0.69635338  0.99118166     0.38200
H1351       H  0.87385055  0.57859377  0.04145929     0.33700
H1352       H  0.84238264  0.57831894  0.03078579     0.30400
H1353       H  0.77055998  0.61626736  0.99806782     0.33700
H1354       H  0.79662946  0.61505223  0.01862738     0.30400
H1355       H  0.84459259  0.52797642  0.94130752     0.38200
H1356       H  0.86656095  0.55121405  0.93259318     0.33700
C1357       C  0.79760921  0.49296288  0.88348260    -0.20000
C1358       C  0.78905078  0.46674895  0.87815707     0.36200
C1359       C  0.80369737  0.45088290  0.86051021    -0.26000
C1360       C  0.82662889  0.46060002  0.84825698     0.02600
C1361       C  0.83475599  0.48687426  0.85290223     0.27400
C1362       C  0.82015507  0.50278220  0.87040061    -0.25100
N1363       N  0.76616999  0.45596680  0.89126788    -0.82500
H1364       H  0.79768195  0.43059896  0.85683068     0.13200
C1365       C  0.84328394  0.44263559  0.83216997     0.02600
N1366       N  0.85816997  0.49707556  0.84025214    -0.81100
H1367       H  0.82669752  0.52288586  0.87414727     0.18100
C1368       C  0.84560934  0.44690997  0.80489722    -0.25900
C1369       C  0.86368640  0.43230860  0.78952033     0.36100
C1370       C  0.88039609  0.41340661  0.80200089    -0.20000
C1371       C  0.87672732  0.40825379  0.82917896    -0.25200
C1372       C  0.85846935  0.42273836  0.84436339     0.27500
H1373       H  0.83355155  0.46208180  0.79569250     0.13200
N1374       N  0.86528383  0.43706666  0.76148542    -0.82500
H1375       H  0.88886046  0.39356983  0.83900484     0.18100
N1376       N  0.85593137  0.41798056  0.87233491    -0.81100
H1377       H  0.85235516  0.45221668  0.75583844     0.33700
H1378       H  0.85867826  0.41991995  0.75189074     0.38200
H1379       H  0.86838006  0.40254051  0.87825380     0.33700
H1380       H  0.86247796  0.43496348  0.88225688     0.30400
H1381       H  0.86133632  0.51683957  0.84559989     0.33700
H1382       H  0.87438996  0.48638159  0.84741526     0.30400
H1383       H  0.77066037  0.45452201  0.91143946     0.38200
H1384       H  0.76234866  0.43669791  0.88467321     0.33700
C1385       C  0.71798815  0.51918240  0.93375066    -0.20000
C1386       C  0.70764596  0.52211278  0.95964326     0.36200
C1387       C  0.68039685  0.51812935  0.96400897    -0.26000
C1388       C  0.66344306  0.51124921  0.94311800     0.02600
C1389       C  0.67357777  0.50857609  0.91729922     0.27400
C1390       C  0.70078087  0.51247273  0.91287665    -0.25100
N1391       N  0.72484629  0.52843503  0.98147683    -0.82500
H1392       H  0.67235290  0.51998435  0.98383382     0.13200
C1393       C  0.63522206  0.50589324  0.94874683     0.02600
N1394       N  0.65614908  0.50205280  0.89570668    -0.81100
H1395       H  0.70857478  0.51038598  0.89298067     0.18100
C1396       C  0.61658555  0.52624982  0.94592421    -0.25900
C1397       C  0.58963574  0.52182641  0.95156447     0.36100
C1398       C  0.58141573  0.49659925  0.96040404    -0.20000
C1399       C  0.60009337  0.47611158  0.96255598    -0.25200
C1400       C  0.62696434  0.48053673  0.95685655     0.27500
H1401       H  0.62313386  0.54558693  0.93931464     0.13200
N1402       N  0.57057713  0.54266569  0.94801121    -0.82500
H1403       H  0.59378607  0.45673768  0.96929755     0.18100
N1404       N  0.64601055  0.45956388  0.95969084    -0.81100
H1405       H  0.57988108  0.55994021  0.94138472     0.33700
H1406       H  0.55761338  0.53675839  0.93294562     0.38200
H1407       H  0.63676527  0.44221893  0.96621325     0.33700
H1408       H  0.65368958  0.45541079  0.94090663     0.30400
H1409       H  0.66667123  0.50121462  0.87788173     0.33700
H1410       H  0.64872325  0.48301820  0.89904980     0.30400
H1411       H  0.73782860  0.51250964  0.98400749     0.38200
H1412       H  0.71401972  0.53009995  0.99906388     0.33700
C1413       C  0.37616627  0.42100870  0.68448144    -0.20000
C1414       C  0.36070249  0.44108811  0.69654401     0.36200
C1415       C  0.34474572  0.45754771  0.68083318    -0.26000
C1416       C  0.34353307  0.45422948  0.65329714     0.02600
C1417       C  0.35754750  0.43329166  0.64131985     0.27400
C1418       C  0.37372111  0.41699874  0.65695353    -0.25100
N1419       N  0.36125495  0.44519810  0.72462025    -0.82500
H1420       H  0.33369474  0.47342680  0.69015129     0.13200
C1421       C  0.32816225  0.47318665  0.63700570     0.02600
N1422       N  0.35547633  0.42885981  0.61323916    -0.81100
H1423       H  0.38489074  0.40142559  0.64731529     0.18100
C1424       C  0.34129377  0.48772496  0.61733209    -0.25900
C1425       C  0.32739796  0.50481546  0.60035687     0.36100
C1426       C  0.29965257  0.50784362  0.60353313    -0.20000
C1427       C  0.28676175  0.49377831  0.62387372    -0.25200
C1428       C  0.30068055  0.47639563  0.64050813     0.27500
H1429       H  0.36249643  0.48527784  0.61490235     0.13200
N1430       N  0.34136048  0.51842698  0.57959679    -0.82500
H1431       H  0.26559809  0.49606283  0.62665796     0.18100
N1432       N  0.28695890  0.46162794  0.66061809    -0.81100
H1433       H  0.36169754  0.51459261  0.58062724     0.33700
H1434       H  0.33485016  0.51057766  0.56154664     0.38200
H1435       H  0.26678663  0.46636774  0.66071012     0.33700
H1436       H  0.28828751  0.44156558  0.65565416     0.30400
H1437       H  0.36716028  0.41276360  0.60745965     0.33700
H1438       H  0.33582702  0.42368740  0.60913814     0.30400
H1439       H  0.36742187  0.46464078  0.72824503     0.38200
H1440       H  0.34193316  0.44312325  0.73182675     0.33700
C1441       C  0.44911061  0.35674330  0.68324999    -0.20000
C1442       C  0.47673388  0.35541288  0.68778356     0.36200
C1443       C  0.49246730  0.33921866  0.67149135    -0.26000
C1444       C  0.48130375  0.32483219  0.65047699     0.02600
C1445       C  0.45370616  0.32582647  0.64617244     0.27400
C1446       C  0.43789391  0.34169535  0.66267196    -0.25100
N1447       N  0.48888352  0.37122086  0.70816894    -0.82500
H1448       H  0.51368959  0.33834579  0.67468992     0.13200
C1449       C  0.49890531  0.31003080  0.63217496     0.02600
N1450       N  0.44196163  0.31122323  0.62468065    -0.81100
H1451       H  0.41671990  0.34265337  0.65918532     0.18100
C1452       C  0.49561679  0.28266005  0.62910530    -0.25900
C1453       C  0.51106822  0.26819373  0.61096066     0.36100
C1454       C  0.53001432  0.28162696  0.59504596    -0.20000
C1455       C  0.53376978  0.30899458  0.59902567    -0.25200
C1456       C  0.51840186  0.32329222  0.61726671     0.27500
H1457       H  0.48085900  0.27255306  0.64098305     0.13200
N1458       N  0.50736493  0.24004146  0.60874517    -0.82500
H1459       H  0.54830614  0.31960954  0.58737166     0.18100
N1460       N  0.52207050  0.35139086  0.62025224    -0.81100
H1461       H  0.49197845  0.23363436  0.62105248     0.33700
H1462       H  0.52461433  0.23099420  0.61578220     0.38200
H1463       H  0.53735981  0.35813241  0.60800745     0.33700
H1464       H  0.50472730  0.36068042  0.61378805     0.30400
H1465       H  0.42142297  0.31396214  0.62433768     0.33700
H1466       H  0.44929419  0.31910201  0.60699254     0.30400
H1467       H  0.48655041  0.39110348  0.70290087     0.38200
H1468       H  0.50929339  0.36773534  0.70897005     0.33700
C1469       C  0.46031282  0.44256328  0.89769219    -0.20000
C1470       C  0.46867402  0.41765165  0.88801186     0.36200
C1471       C  0.46206583  0.41013228  0.86202099    -0.26000
C1472       C  0.44707985  0.42683881  0.84568795     0.02600
C1473       C  0.43830316  0.45147284  0.85548513     0.27400
C1474       C  0.44482972  0.45898952  0.88146957    -0.25100
N1475       N  0.48338978  0.39990815  0.90471345    -0.82500
H1476       H  0.46840032  0.39105167  0.85448856     0.13200
C1477       C  0.44070176  0.41833212  0.81831082     0.02600
N1478       N  0.42317885  0.46890962  0.83882880    -0.81100
H1479       H  0.43836238  0.47807787  0.88886283     0.18100
C1480       C  0.41408273  0.41557314  0.81077131    -0.25900
C1481       C  0.40720607  0.40826704  0.78479986     0.36100
C1482       C  0.42743592  0.40363927  0.76604240    -0.20000
C1483       C  0.45408571  0.40579203  0.77379926    -0.25200
C1484       C  0.46093414  0.41335259  0.79969960     0.27500
H1485       H  0.39864282  0.41910385  0.82527384     0.13200
N1486       N  0.37982261  0.40520382  0.77751587    -0.82500
H1487       H  0.46961698  0.40236126  0.75937074     0.18100
N1488       N  0.48829259  0.41652312  0.80705656    -0.81100
H1489       H  0.36746942  0.40943094  0.79360366     0.33700
H1490       H  0.37677814  0.38526494  0.77278096     0.38200
H1491       H  0.50070255  0.41206883  0.79107350     0.33700
H1492       H  0.49133322  0.43652252  0.81153193     0.30400
H1493       H  0.41816455  0.48621727  0.84905513     0.33700
H1494       H  0.43535465  0.47462813  0.82307902     0.30400
H1495       H  0.47101465  0.39441234  0.92039318     0.38200
H1496       H  0.48808285  0.38249666  0.89451090     0.33700
C1497       C  0.67490382  0.44478407  0.37701836    -0.20000
C1498       C  0.68843353  0.46012801  0.35779504     0.36200
C1499       C  0.67407882  0.47790456  0.34195287    -0.26000
C1500       C  0.64662382  0.48034472  0.34466461     0.02600
C1501       C  0.63295204  0.46478553  0.36329954     0.27400
C1502       C  0.64721846  0.44711037  0.37927341    -0.25100
N1503       N  0.71655371  0.45738425  0.35410221    -0.82500
H1504       H  0.68424996  0.48973560  0.32721273     0.13200
C1505       C  0.63211757  0.49856005  0.32714370     0.02600
N1506       N  0.60461893  0.46684860  0.36569529    -0.81100
H1507       H  0.63667136  0.43549456  0.39390710     0.18100
C1508       C  0.62224513  0.48890020  0.30311544    -0.25900
C1509       C  0.60606738  0.50467299  0.28694253     0.36100
C1510       C  0.59985171  0.53080922  0.29509817    -0.20000
C1511       C  0.61101441  0.54076323  0.31865567    -0.25200
C1512       C  0.62709886  0.52486333  0.33478214     0.27500
H1513       H  0.62646923  0.46862635  0.29744632     0.13200
N1514       N  0.59520061  0.49377640  0.26294241    -0.82500
H1515       H  0.60673078  0.56087471  0.32481528     0.18100
N1516       N  0.63826104  0.53522306  0.35888778    -0.81100
H1517       H  0.60256860  0.47473366  0.25950373     0.33700
H1518       H  0.57476451  0.49169997  0.26571353     0.38200
H1519       H  0.63298827  0.55508958  0.36140757     0.33700
H1520       H  0.62988142  0.52488345  0.37473257     0.30400
H1521       H  0.59753605  0.45370218  0.38003392     0.33700
H1522       H  0.60021492  0.48589025  0.37252597     0.30400
H1523       H  0.72005926  0.43820244  0.34711422     0.38200
H1524       H  0.72334835  0.47032043  0.33943383     0.33700
C1525       C  0.43749586  0.66392935  0.38236278    -0.20000
C1526       C  0.44066062  0.63608831  0.38274794     0.36200
C1527       C  0.45933772  0.62413437  0.36607384    -0.26000
C1528       C  0.47497736  0.63934835  0.34900998     0.02600
C1529       C  0.47193398  0.66698440  0.34826539     0.27400
C1530       C  0.45311638  0.67900835  0.36482054    -0.25100
N1531       N  0.42548860  0.61981391  0.40034169    -0.82500
H1532       H  0.46173851  0.60280579  0.36651168     0.13200
C1533       C  0.49428099  0.62587081  0.33180342     0.02600
N1534       N  0.48815362  0.68266861  0.33088925    -0.81100
H1535       H  0.45089570  0.70031946  0.36414154     0.18100
C1536       C  0.48878458  0.62341133  0.30477818    -0.25900
C1537       C  0.50552980  0.60886416  0.28810437     0.36100
C1538       C  0.52847648  0.59661037  0.29865381    -0.20000
C1539       C  0.53432595  0.60014830  0.32574542    -0.25200
C1540       C  0.51739849  0.61457554  0.34240855     0.27500
H1541       H  0.47096147  0.63225953  0.29670637     0.13200
N1542       N  0.49865950  0.60622746  0.26069156    -0.82500
H1543       H  0.55189586  0.59122549  0.33421397     0.18100
N1544       N  0.52330503  0.61749641  0.37013279    -0.81100
H1545       H  0.49739675  0.62519171  0.25250461     0.33700
H1546       H  0.47992447  0.59743027  0.25949093     0.38200
H1547       H  0.54096257  0.60776669  0.37488369     0.33700
H1548       H  0.52649820  0.63763023  0.37380242     0.30400
H1549       H  0.48338746  0.70274102  0.33266137     0.33700
H1550       H  0.50780841  0.68071179  0.33716157     0.30400
H1551       H  0.43864207  0.60945290  0.41251876     0.38200
H1552       H  0.41498159  0.60601953  0.38897573     0.33700
C1553       C  0.54807910  0.55063078  0.21469124    -0.20000
C1554       C  0.56702103  0.54144996  0.19619067     0.36200
C1555       C  0.55877055  0.53447458  0.17055020    -0.26000
C1556       C  0.53212255  0.53645924  0.16312182     0.02600
C1557       C  0.51321055  0.54577389  0.18133493     0.27400
C1558       C  0.52139573  0.55293901  0.20693121    -0.25100
N1559       N  0.59450698  0.53932102  0.20339575    -0.82500
H1560       H  0.57310542  0.52720440  0.15630394     0.13200
C1561       C  0.52425560  0.52776186  0.13637118     0.02600
N1562       N  0.48577430  0.54750917  0.17383596    -0.81100
H1563       H  0.50672774  0.55971644  0.22106782     0.18100
C1564       C  0.51228220  0.50299937  0.13334793    -0.25900
C1565       C  0.50600691  0.49306236  0.10813603     0.36100
C1566       C  0.51126881  0.50874261  0.08535189    -0.20000
C1567       C  0.52304690  0.53383037  0.08873266    -0.25200
C1568       C  0.52965662  0.54342306  0.11402940     0.27500
H1569       H  0.50845424  0.49108811  0.15078574     0.13200
N1570       N  0.49463106  0.46703051  0.10580731    -0.82500
H1571       H  0.52716250  0.54606850  0.07161467     0.18100
N1572       N  0.54195281  0.56892606  0.11719934    -0.81100
H1573       H  0.49082340  0.45896009  0.12448984     0.33700
H1574       H  0.50889416  0.45482474  0.09703771     0.38200
H1575       H  0.54477938  0.57794640  0.09878478     0.33700
H1576       H  0.52879751  0.58095253  0.12776306     0.30400
H1577       H  0.47433692  0.55445540  0.18965218     0.33700
H1578       H  0.48429293  0.56164524  0.15879137     0.30400
H1579       H  0.60566684  0.53187984  0.18760605     0.38200
H1580       H  0.60151560  0.55846545  0.20710915     0.33700
loop_ 
_geom_bond_atom_site_label_1 
_geom_bond_atom_site_label_2 
_geom_bond_distance 
_geom_bond_site_symmetry_2 
_ccdc_geom_bond_type 
C1            N2   1.357       .  A
C1            N6   1.357       .  A
C1         C1553   1.480       .  S
N2            C3   1.357       .  A
C3            N4   1.357       .  A
C3         C1510   1.483       .  S
N4            C5   1.357       .  A
C5            N6   1.357       .  A
C5         C1538   1.489       .  S
C7            N8   1.358       .  A
C7           N12   1.359       .  A
C7         C1482   1.478       .  S
N8            C9   1.357       .  A
C9           N10   1.357       .  A
C9         C1441   1.480       .  S
N10          C11   1.359       .  A
C11          N12   1.359       .  A
C11        C1413   1.493       .  S
C13          N14   1.359       .  A
C13          N18   1.360       .  A
C13        C1385   1.482       .  S
N14          C15   1.357       .  A
C15          N16   1.358       .  A
C15        C1357   1.485       .  S
N16          C17   1.358       .  A
C17          N18   1.361       .  A
C17        C1329   1.496       .  S
C19          N20   1.361       .  A
C19          N24   1.360       .  A
C19        C1314   1.492       .  S
N20          C21   1.360       .  A
C21          N22   1.359       .  A
C21        C1245   1.490       .  S
N22          C23   1.359       .  A
C23          N24   1.358       .  A
C23        C1286   1.494       .  S
C25          N26   1.361       .  A
C25          N30   1.358       .  A
C25        C1217   1.491       .  S
N26          C27   1.360       .  A
C27          N28   1.357       .  A
C27        C1174   1.492       .  S
N28          C29   1.357       .  A
C29          N30   1.356       .  A
C29        C1189   1.490       .  S
C31          N32   1.360       .  A
C31          N36   1.359       .  A
C31        C1146   1.485       .  S
N32          C33   1.361       .  A
C33          N34   1.357       .  A
C33        C1105   1.490       .  S
N34          C35   1.358       .  A
C35          N36   1.357       .  A
C35        C1077   1.478       .  S
Zn37         O41   1.961       .  S
Zn37         O42   2.033   1_556  S
Zn37         O46   2.029       .  S
Zn37         O53   2.024       .  S
Zn38         O41   1.947   1_554  S
Zn38         O43   1.983       .  S
Zn38         O45   1.990       .  S
Zn38         O49   2.004       .  S
Zn39         O41   1.960       .  S
Zn39         O44   2.026       .  S
Zn39         O47   2.017       .  S
Zn39         O50   2.012       .  S
Zn40         O41   1.959       .  S
Zn40         O48   2.014       .  S
Zn40         O51   2.024       .  S
Zn40         O52   2.010       .  S
O42          C54   1.276       .  A
O43          C55   1.268       .  A
O44          C56   1.274       .  A
O45          C54   1.270       .  A
O46          C56   1.274       .  A
O47          C55   1.274   1_556  A
O48          C57   1.274       .  A
O49          C58   1.271       .  A
O50          C57   1.274       .  A
O51          C58   1.272   1_556  A
O52          C59   1.274       .  A
O53          C59   1.275       .  A
C54        C1566   1.491       .  S
C55        C1230   1.479       .  S
C56        C1301   1.495       .  S
C57        C1469   1.479       .  S
C58        C1133   1.479       .  S
C59        C1398   1.478       .  S
C60          N61   1.360       .  A
C60          N65   1.358       .  A
C60        C1049   1.482       .  S
N61          C62   1.361       .  A
C62          N63   1.359       .  A
C62        C1034   1.496       .  S
N63          C64   1.359       .  A
C64          N65   1.356       .  A
C64        C1454   1.495       .  S
C66          N67   1.355       .  A
C66          N71   1.360       .  A
C66         C993   1.491       .  S
N67          C68   1.354       .  A
C68          N69   1.356       .  A
C68        C1525   1.486       .  S
N69          C70   1.359       .  A
C70          N71   1.360       .  A
C70         C965   1.492       .  S
C72          N73   1.362       .  A
C72          N77   1.360       .  A
C72         C937   1.487       .  S
N73          C74   1.361       .  A
C74          N75   1.356       .  A
C74         C922   1.491       .  S
N75          C76   1.354       .  A
C76          N77   1.356       .  A
C76        C1258   1.479       .  S
C78          N79   1.361       .  A
C78          N83   1.358       .  A
C78         C894   1.484       .  S
N79          C80   1.359       .  A
C80          N81   1.356       .  A
C80         C853   1.479       .  S
N81          C82   1.356       .  A
C82          N83   1.357       .  A
C82         C825   1.486       .  S
C84          N85   1.361       .  A
C84          N89   1.359       .  A
C84         C797   1.489       .  S
N85          C86   1.358       .  A
C86          N87   1.357       .  A
C86         C769   1.492       .  S
N87          C88   1.355       .  A
C88          N89   1.357       .  A
C88        C1090   1.478       .  S
C90          N91   1.357       .  A
C90          N95   1.354       .  A
C90         C754   1.482       .  S
N91          C92   1.357       .  A
C92          N93   1.361       .  A
C92         C685   1.489       .  S
N93          C94   1.360       .  A
C94          N95   1.356       .  A
C94         C713   1.486       .  S
Zn96        O100   1.947       .  S
Zn96        O101   1.991       .  S
Zn96        O105   1.993       .  S
Zn96        O112   2.003       .  S
Zn97        O100   1.960       .  S
Zn97        O102   2.026   1_565  S
Zn97        O104   2.026   1_565  S
Zn97        O108   2.023       .  S
Zn98        O100   1.949       .  S
Zn98        O103   2.007       .  S
Zn98        O106   2.007   1_565  S
Zn98        O109   1.998       .  S
Zn99        O100   1.953       .  S
Zn99        O107   2.015       .  S
Zn99        O110   2.010       .  S
Zn99        O111   2.021       .  S
O101        C113   1.271       .  A
O102        C114   1.275       .  A
O103        C115   1.272       .  A
O104        C113   1.276   1_545  A
O105        C115   1.270       .  A
O106        C114   1.272       .  A
O107        C116   1.274       .  A
O108        C117   1.275       .  A
O109        C116   1.271       .  A
O110        C117   1.274       .  A
O111        C118   1.275       .  A
O112        C118   1.271       .  A
C113        C810   1.483   1_565  S
C114       C1062   1.493       .  S
C115        C741   1.480       .  S
C116        C950   1.485       .  S
C117        C881   1.489       .  S
C118       C1006   1.491       .  S
C119        N120   1.361       .  A
C119        N124   1.358       .  A
C119        C657   1.497       .  S
N120        C121   1.360       .  A
C121        N122   1.360       .  A
C121        C642   1.495       .  S
N122        C123   1.359       .  A
C123        N124   1.359       .  A
C123       C1161   1.491       .  S
C125        N126   1.359       .  A
C125        N130   1.361       .  A
C125        C601   1.487       .  S
N126        C127   1.357       .  A
C127        N128   1.356       .  A
C127        C782   1.479       .  S
N128        C129   1.357       .  A
C129        N130   1.361       .  A
C129       C1273   1.488       .  S
C131        N132   1.359       .  A
C131        N136   1.361       .  A
C131        C586   1.483       .  S
N132        C133   1.359       .  A
C133        N134   1.358       .  A
C133        C866   1.491       .  S
N134        C135   1.358       .  A
C135        N136   1.359       .  A
C135        C558   1.488       .  S
C137        N138   1.361       .  A
C137        N142   1.360       .  A
C137        C530   1.482       .  S
N138        C139   1.359       .  A
C139        N140   1.357       .  A
C139        C502   1.489       .  S
N140        C141   1.358       .  A
C141        N142   1.359       .  A
C141       C1342   1.497       .  S
C143        N144   1.359       .  A
C143        N148   1.359       .  A
C143        C461   1.487       .  S
N144        C145   1.358       .  A
C145        N146   1.359       .  A
C145        C909   1.492       .  S
N146        C147   1.357       .  A
C147        N148   1.360       .  A
C147       C1118   1.491       .  S
C149        N150   1.358       .  A
C149        N154   1.358       .  A
C149        C446   1.481       .  S
N150        C151   1.358       .  A
C151        N152   1.356       .  A
C151        C726   1.484       .  S
N152        C153   1.356       .  A
C153        N154   1.356       .  A
C153        C405   1.478       .  S
Zn155       O159   1.950   1_455  S
Zn155       O160   1.994       .  S
Zn155       O164   2.013       .  S
Zn155       O171   2.013   1_565  S
Zn156       O159   1.966       .  S
Zn156       O161   2.028       .  S
Zn156       O163   2.017       .  S
Zn156       O167   2.014       .  S
Zn157       O159   1.955   1_554  S
Zn157       O162   2.033   1_655  S
Zn157       O165   2.009       .  S
Zn157       O168   2.005       .  S
Zn158       O159   1.964   1_545  S
Zn158       O166   2.021   1_556  S
Zn158       O169   2.028       .  S
Zn158       O170   2.036       .  S
O160        C172   1.272   1_455  A
O161        C173   1.274   1_556  A
O162        C174   1.275       .  A
O163        C172   1.274       .  A
O164        C174   1.272   1_556  A
O165        C173   1.274       .  A
O166        C175   1.275   1_545  A
O167        C176   1.273       .  A
O168        C175   1.273       .  A
O169        C176   1.275   1_545  A
O170        C177   1.275   1_655  A
O171        C177   1.273       .  A
C172        C433   1.479       .  S
C173        C517   1.493       .  S
C174        C614   1.495       .  S
C175        C573   1.482   1_565  S
C176        C474   1.491       .  S
C177        C670   1.496       .  S
C178        N179   1.357       .  A
C178        N183   1.356       .  A
C178        C377   1.478       .  S
N179        C180   1.359       .  A
C180        N181   1.360       .  A
C180       C1426   1.488       .  S
N181        C182   1.359       .  A
C182        N183   1.356       .  A
C182        C978   1.482       .  S
C184        N185   1.356       .  A
C184        N189   1.362       .  A
C184        C349   1.488       .  S
N185        C186   1.355       .  A
C186        N187   1.358       .  A
C186       C1497   1.484       .  S
N187        C188   1.359       .  A
C188        N189   1.361       .  A
C188       C1021   1.489       .  S
C190        N191   1.358       .  A
C190        N195   1.359       .  A
C190        C334   1.473       .  S
N191        C192   1.357       .  A
C192        N193   1.357       .  A
C192        C418   1.493       .  S
N193        C194   1.356       .  A
C194        N195   1.360       .  A
C194        C838   1.489       .  S
C196        N197   1.359       .  A
C196        N201   1.359       .  A
C196        C293   1.485       .  S
N197        C198   1.359       .  A
C198        N199   1.358       .  A
C198        C545   1.492       .  S
N199        C200   1.358       .  A
C200        N201   1.358       .  A
C200        C698   1.485       .  S
C202        N203   1.357       .  A
C202        N207   1.357       .  A
C202        C265   1.480       .  S
N203        C204   1.358       .  A
C204        N205   1.362       .  A
C204       C1370   1.495       .  S
N205        C206   1.359       .  A
C206        N207   1.357       .  A
C206        C629   1.479       .  S
C208        N209   1.357       .  A
C208        N213   1.357       .  A
C208        C237   1.474       .  S
N209        C210   1.358       .  A
C210        N211   1.358       .  A
C210       C1202   1.492       .  S
N211        C212   1.360       .  A
C212        N213   1.356       .  A
C212        C489   1.491       .  S
Zn214       O218   1.958       .  S
Zn214       O219   2.025       .  S
Zn214       O223   2.019       .  S
Zn214       O230   2.012       .  S
Zn215       O218   1.951   1_455  S
Zn215       O220   2.004       .  S
Zn215       O222   2.007       .  S
Zn215       O226   2.006       .  S
Zn216       O218   1.961       .  S
Zn216       O221   2.017       .  S
Zn216       O224   2.014       .  S
Zn216       O227   2.028       .  S
Zn217       O218   1.955       .  S
Zn217       O225   2.009       .  S
Zn217       O228   2.011   1_655  S
Zn217       O229   2.013       .  S
O219        C231   1.275   1_655  A
O220        C232   1.272       .  A
O221        C233   1.274       .  A
O222        C231   1.272       .  A
O223        C233   1.274       .  A
O224        C232   1.273   1_655  A
O225        C234   1.273       .  A
O226        C235   1.272       .  A
O227        C234   1.275       .  A
O228        C235   1.273       .  A
O229        C236   1.274       .  A
O230        C236   1.272       .  A
C231        C306   1.492       .  S
C232        C250   1.473       .  S
C233        C362   1.479       .  S
C234        C321   1.485       .  S
C235        C390   1.487       .  S
C236        C278   1.491       .  S
C237        C238   1.413       .  A
C237        C242   1.404       .  A
C238        C239   1.403       .  A
C238        N243   1.438       .  S
C239        C240   1.400       .  A
C239        H244   1.084       .  S
C240        C245   1.474       .  S
C240        C241   1.408       .  A
C241        C242   1.404       .  A
C241        N246   1.438       .  S
C242        H247   1.084       .  S
N243        H263   1.046       .  S
N243        H264   1.046       .  S
C245        C248   1.400       .  A
C245        C252   1.409   1_455  A
N246        H261   1.045       .  S
N246        H262   1.046       .  S
C248        C249   1.403       .  A
C248        H253   1.084       .  S
C249        C250   1.412       .  A
C249        N254   1.438       .  S
C250        C251   1.403   1_455  A
C251        C252   1.404       .  A
C251        H255   1.084       .  S
C252        N256   1.438       .  S
N254        H257   1.046       .  S
N254        H258   1.046       .  S
N256        H259   1.046       .  S
N256        H260   1.046       .  S
C265        C266   1.412       .  A
C265        C270   1.406       .  A
C266        C267   1.402       .  A
C266        N271   1.432       .  S
C267        C268   1.400       .  A
C267        H272   1.084       .  S
C268        C273   1.476       .  S
C268        C269   1.407       .  A
C269        C270   1.404       .  A
C269        N274   1.438       .  S
C270        H275   1.083       .  S
N271        H291   1.046       .  S
N271        H292   1.046       .  S
C273        C276   1.398       .  A
C273        C280   1.405       .  A
N274        H289   1.046       .  S
N274        H290   1.046       .  S
C276        C277   1.405       .  A
C276        H281   1.084       .  S
C277        C278   1.420       .  A
C277        N282   1.438       .  S
C278        C279   1.409       .  A
C279        C280   1.404       .  A
C279        H283   1.083       .  S
C280        N284   1.438       .  S
N282        H285   1.046       .  S
N282        H286   1.046       .  S
N284        H287   1.046       .  S
N284        H288   1.046       .  S
C293        C294   1.417       .  A
C293        C298   1.407       .  A
C294        C295   1.406       .  A
C294        N299   1.438       .  S
C295        C296   1.399       .  A
C295        H300   1.084       .  S
C296        C301   1.477       .  S
C296        C297   1.406       .  A
C297        C298   1.405       .  A
C297        N302   1.438       .  S
C298        H303   1.083       .  S
N299        H319   1.046       .  S
N299        H320   1.046       .  S
C301        C304   1.398       .  A
C301        C308   1.406       .  A
N302        H317   1.045       .  S
N302        H318   1.046       .  S
C304        C305   1.406       .  A
C304        H309   1.084       .  S
C305        C306   1.421       .  A
C305        N310   1.438       .  S
C306        C307   1.409   1_455  A
C307        C308   1.405   1_655  A
C307        H311   1.083       .  S
C308        N312   1.438   1_455  S
N310        H313   1.046       .  S
N310        H314   1.046       .  S
N312        H315   1.045       .  S
N312        H316   1.046       .  S
C321        C322   1.416       .  A
C321        C326   1.407       .  A
C322        C323   1.404       .  A
C322        N327   1.438       .  S
C323        C324   1.399       .  A
C323        H328   1.084       .  S
C324        C329   1.478       .  S
C324        C325   1.407       .  A
C325        C326   1.407       .  A
C325        N330   1.438       .  S
C326        H331   1.084       .  S
N327        H347   1.046       .  S
N327        H348   1.046       .  S
C329        C332   1.401       .  A
C329        C336   1.409       .  A
N330        H345   1.046       .  S
N330        H346   1.045       .  S
C332        C333   1.406       .  A
C332        H337   1.084       .  S
C333        C334   1.412       .  A
C333        N338   1.438       .  S
C334        C335   1.402       .  A
C335        C336   1.405       .  A
C335        H339   1.084       .  S
C336        N340   1.437       .  S
N338        H341   1.046       .  S
N338        H342   1.046       .  S
N340        H343   1.046       .  S
N340        H344   1.045       .  S
C349        C350   1.419       .  A
C349        C354   1.405       .  A
C350        C351   1.405       .  A
C350        N355   1.438       .  S
C351        C352   1.402       .  A
C351        H356   1.084       .  S
C352        C357   1.488       .  S
C352        C353   1.411       .  A
C353        C354   1.405       .  A
C353        N358   1.438       .  S
C354        H359   1.083       .  S
N355        H375   1.046       .  S
N355        H376   1.046       .  S
C357        C360   1.404       .  A
C357        C364   1.412       .  A
N358        H373   1.046       .  S
N358        H374   1.046       .  S
C360        C361   1.405       .  A
C360        H365   1.084       .  S
C361        C362   1.412       .  A
C361        N366   1.438       .  S
C362        C363   1.403       .  A
C363        C364   1.405       .  A
C363        H367   1.084       .  S
C364        N368   1.438       .  S
N366        H369   1.046       .  S
N366        H370   1.046       .  S
N368        H371   1.046       .  S
N368        H372   1.045       .  S
C377        C378   1.409       .  A
C377        C382   1.404       .  A
C378        C379   1.401       .  A
C378        N383   1.433       .  S
C379        C380   1.404       .  A
C379        H384   1.084       .  S
C380        C385   1.486       .  S
C380        C381   1.413       .  A
C381        C382   1.405       .  A
C381        N386   1.438       .  S
C382        H387   1.084       .  S
N383        H403   1.045       .  S
N383        H404   1.046       .  S
C385        C388   1.403       .  A
C385        C392   1.410       .  A
N386        H401   1.046       .  S
N386        H402   1.045       .  S
C388        C389   1.404       .  A
C388        H393   1.084       .  S
C389        C390   1.416       .  A
C389        N394   1.438       .  S
C390        C391   1.407       .  A
C391        C392   1.404       .  A
C391        H395   1.083       .  S
C392        N396   1.438       .  S
N394        H397   1.046       .  S
N394        H398   1.046       .  S
N396        H399   1.046       .  S
N396        H400   1.046       .  S
C405        C406   1.411       .  A
C405        C410   1.406       .  A
C406        C407   1.398       .  A
C406        N411   1.433       .  S
C407        C408   1.401   1_455  A
C407        H412   1.084       .  S
C408        C413   1.479       .  S
C408        C409   1.409       .  A
C409        C410   1.406   1_655  A
C409        N414   1.437       .  S
C410        H415   1.084       .  S
N411        H431   1.046       .  S
N411        H432   1.046       .  S
C413        C416   1.400       .  A
C413        C420   1.406       .  A
N414        H429   1.046       .  S
N414        H430   1.045       .  S
C416        C417   1.407       .  A
C416        H421   1.084       .  S
C417        C418   1.421       .  A
C417        N422   1.437       .  S
C418        C419   1.409       .  A
C419        C420   1.400       .  A
C419        H423   1.082       .  S
C420        N424   1.439       .  S
N422        H425   1.046       .  S
N422        H426   1.045       .  S
N424        H427   1.046       .  S
N424        H428   1.046       .  S
C433        C434   1.415       .  A
C433        C438   1.406   1_655  A
C434        C435   1.405       .  A
C434        N439   1.438       .  S
C435        C436   1.401   1_655  A
C435        H440   1.084       .  S
C436        C441   1.474       .  S
C436        C437   1.406       .  A
C437        C438   1.400       .  A
C437        N442   1.438       .  S
C438        H443   1.084       .  S
N439        H459   1.046       .  S
N439        H460   1.046       .  S
C441        C444   1.400       .  A
C441        C448   1.406       .  A
N442        H457   1.046       .  S
N442        H458   1.046       .  S
C444        C445   1.400       .  A
C444        H449   1.084       .  S
C445        C446   1.413       .  A
C445        N450   1.433       .  S
C446        C447   1.407       .  A
C447        C448   1.403       .  A
C447        H451   1.083       .  S
C448        N452   1.438   1_455  S
N450        H453   1.046       .  S
N450        H454   1.046       .  S
N452        H455   1.046       .  S
N452        H456   1.046   1_655  S
C461        C462   1.417       .  A
C461        C466   1.407       .  A
C462        C463   1.407       .  A
C462        N467   1.438       .  S
C463        C464   1.402       .  A
C463        H468   1.084       .  S
C464        C469   1.483       .  S
C464        C465   1.408       .  A
C465        C466   1.404       .  A
C465        N470   1.438       .  S
C466        H471   1.083       .  S
N467        H487   1.046       .  S
N467        H488   1.045       .  S
C469        C472   1.400   1_545  A
C469        C476   1.408       .  A
N470        H485   1.046       .  S
N470        H486   1.046       .  S
C472        C473   1.405       .  A
C472        H477   1.084       .  S
C473        C474   1.418       .  A
C473        N478   1.438       .  S
C474        C475   1.409   1_565  A
C475        C476   1.407       .  A
C475        H479   1.083       .  S
C476        N480   1.438       .  S
N478        H481   1.046       .  S
N478        H482   1.046       .  S
N480        H483   1.046       .  S
N480        H484   1.046       .  S
C489        C490   1.421   1_455  A
C489        C494   1.407       .  A
C490        C491   1.407       .  A
C490        N495   1.438       .  S
C491        C492   1.400       .  A
C491        H496   1.084       .  S
C492        C497   1.481       .  S
C492        C493   1.408   1_655  A
C493        C494   1.402       .  A
C493        N498   1.438       .  S
C494        H499   1.083       .  S
N495        H515   1.045   1_655  S
N495        H516   1.046       .  S
C497        C500   1.401       .  A
C497        C504   1.408       .  A
N498        H513   1.046       .  S
N498        H514   1.046       .  S
C500        C501   1.406       .  A
C500        H505   1.084   1_655  S
C501        C502   1.416       .  A
C501        N506   1.436       .  S
C502        C503   1.408       .  A
C503        C504   1.404       .  A
C503        H507   1.083       .  S
C504        N508   1.438       .  S
N506        H509   1.046       .  S
N506        H510   1.045       .  S
N508        H511   1.046       .  S
N508        H512   1.046       .  S
C517        C518   1.419   1_554  A
C517        C522   1.408       .  A
C518        C519   1.409   1_556  A
C518        N523   1.438       .  S
C519        C520   1.403       .  A
C519        H524   1.084   1_554  S
C520        C525   1.487       .  S
C520        C521   1.408       .  A
C521        C522   1.403       .  A
C521        N526   1.438       .  S
C522        H527   1.083       .  S
N523        H543   1.046       .  S
N523        H544   1.046       .  S
C525        C528   1.403       .  A
C525        C532   1.410       .  A
N526        H541   1.046       .  S
N526        H542   1.045       .  S
C528        C529   1.404       .  A
C528        H533   1.084       .  S
C529        C530   1.413       .  A
C529        N534   1.437       .  S
C530        C531   1.406       .  A
C531        C532   1.408       .  A
C531        H535   1.084       .  S
C532        N536   1.437       .  S
N534        H537   1.046       .  S
N534        H538   1.046       .  S
N536        H539   1.046       .  S
N536        H540   1.046       .  S
C545        C546   1.418       .  A
C545        C550   1.408       .  A
C546        C547   1.405       .  A
C546        N551   1.438       .  S
C547        C548   1.402   1_455  A
C547        H552   1.084       .  S
C548        C553   1.488       .  S
C548        C549   1.410       .  A
C549        C550   1.405   1_655  A
C549        N554   1.438       .  S
C550        H555   1.083       .  S
N551        H571   1.046       .  S
N551        H572   1.046       .  S
C553        C556   1.401       .  A
C553        C560   1.411       .  A
N554        H569   1.046       .  S
N554        H570   1.045       .  S
C556        C557   1.403       .  A
C556        H561   1.084       .  S
C557        C558   1.415       .  A
C557        N562   1.436       .  S
C558        C559   1.407       .  A
C559        C560   1.408       .  A
C559        H563   1.083       .  S
C560        N564   1.437   1_655  S
N562        H565   1.046       .  S
N562        H566   1.046       .  S
N564        H567   1.046       .  S
N564        H568   1.046       .  S
C573        C574   1.414       .  A
C573        C578   1.407   1_545  A
C574        C575   1.405       .  A
C574        N579   1.438       .  S
C575        C576   1.401       .  A
C575        H580   1.084       .  S
C576        C581   1.477       .  S
C576        C577   1.406   1_545  A
C577        C578   1.404       .  A
C577        N582   1.438       .  S
C578        H583   1.084       .  S
N579        H599   1.046       .  S
N579        H600   1.046       .  S
C581        C584   1.401       .  A
C581        C588   1.406       .  A
N582        H597   1.046       .  S
N582        H598   1.046       .  S
C584        C585   1.407       .  A
C584        H589   1.084       .  S
C585        C586   1.416       .  A
C585        N590   1.438       .  S
C586        C587   1.405       .  A
C587        C588   1.403       .  A
C587        H591   1.084       .  S
C588        N592   1.438       .  S
N590        H593   1.046       .  S
N590        H594   1.046       .  S
N592        H595   1.046       .  S
N592        H596   1.046       .  S
C601        C602   1.413       .  A
C601        C606   1.406       .  A
C602        C603   1.403       .  A
C602        N607   1.432       .  S
C603        C604   1.402       .  A
C603        H608   1.084       .  S
C604        C609   1.488       .  S
C604        C605   1.412       .  A
C605        C606   1.408       .  A
C605        N610   1.438   1_554  S
C606        H611   1.083       .  S
N607        H627   1.046       .  S
N607        H628   1.046       .  S
C609        C612   1.401       .  A
C609        C616   1.410       .  A
N610        H625   1.046       .  S
N610        H626   1.045       .  S
C612        C613   1.406       .  A
C612        H617   1.084       .  S
C613        C614   1.420       .  A
C613        N618   1.438   1_554  S
C614        C615   1.409       .  A
C615        C616   1.408       .  A
C615        H619   1.083       .  S
C616        N620   1.438       .  S
N618        H621   1.046       .  S
N618        H622   1.046       .  S
N620        H623   1.046       .  S
N620        H624   1.045       .  S
C629        C630   1.413       .  A
C629        C634   1.403       .  A
C630        C631   1.406       .  A
C630        N635   1.438       .  S
C631        C632   1.402       .  A
C631        H636   1.084       .  S
C632        C637   1.483   1_655  S
C632        C633   1.411       .  A
C633        C634   1.405       .  A
C633        N638   1.438       .  S
C634        H639   1.084       .  S
N635        H655   1.046       .  S
N635        H656   1.046       .  S
C637        C640   1.400       .  A
C637        C644   1.408       .  A
N638        H653   1.046       .  S
N638        H654   1.046       .  S
C640        C641   1.406       .  A
C640        H645   1.084       .  S
C641        C642   1.418       .  A
C641        N646   1.436       .  S
C642        C643   1.409       .  A
C643        C644   1.406       .  A
C643        H647   1.083       .  S
C644        N648   1.438   1_455  S
N646        H649   1.046       .  S
N646        H650   1.046       .  S
N648        H651   1.046       .  S
N648        H652   1.046       .  S
C657        C658   1.422       .  A
C657        C662   1.410       .  A
C658        C659   1.409       .  A
C658        N663   1.438       .  S
C659        C660   1.400       .  A
C659        H664   1.084       .  S
C660        C665   1.481       .  S
C660        C661   1.405       .  A
C661        C662   1.405       .  A
C661        N666   1.438       .  S
C662        H667   1.083       .  S
N663        H683   1.046       .  S
N663        H684   1.046       .  S
C665        C668   1.400       .  A
C665        C672   1.405       .  A
N666        H681   1.046       .  S
N666        H682   1.046       .  S
C668        C669   1.409       .  A
C668        H673   1.084       .  S
C669        C670   1.419       .  A
C669        N674   1.438   1_455  S
C670        C671   1.411       .  A
C671        C672   1.406       .  A
C671        H675   1.083       .  S
C672        N676   1.438       .  S
N674        H677   1.046       .  S
N674        H678   1.046   1_556  S
N676        H679   1.046       .  S
N676        H680   1.045       .  S
C685        C686   1.420       .  A
C685        C690   1.407       .  A
C686        C687   1.406       .  A
C686        N691   1.438       .  S
C687        C688   1.398       .  A
C687        H692   1.084       .  S
C688        C693   1.476       .  S
C688        C689   1.406       .  A
C689        C690   1.404       .  A
C689        N694   1.438       .  S
C690        H695   1.083       .  S
N691        H711   1.046       .  S
N691        H712   1.046       .  S
C693        C696   1.398       .  A
C693        C700   1.407       .  A
N694        H709   1.046       .  S
N694        H710   1.046       .  S
C696        C697   1.400       .  A
C696        H701   1.084       .  S
C697        C698   1.414       .  A
C697        N702   1.432       .  S
C698        C699   1.408       .  A
C699        C700   1.408       .  A
C699        H703   1.083       .  S
C700        N704   1.437       .  S
N702        H705   1.046       .  S
N702        H706   1.046       .  S
N704        H707   1.045       .  S
N704        H708   1.046       .  S
C713        C714   1.415       .  A
C713        C718   1.408   1_545  A
C714        C715   1.405       .  A
C714        N719   1.438       .  S
C715        C716   1.403   1_545  A
C715        H720   1.084       .  S
C716        C721   1.484       .  S
C716        C717   1.409       .  A
C717        C718   1.403       .  A
C717        N722   1.438       .  S
C718        H723   1.083       .  S
N719        H739   1.046       .  S
N719        H740   1.045       .  S
C721        C724   1.402       .  A
C721        C728   1.410       .  A
N722        H737   1.046       .  S
N722        H738   1.045       .  S
C724        C725   1.403       .  A
C724        H729   1.084       .  S
C725        C726   1.415       .  A
C725        N730   1.438       .  S
C726        C727   1.406       .  A
C727        C728   1.404       .  A
C727        H731   1.083       .  S
C728        N732   1.438       .  S
N730        H733   1.046       .  S
N730        H734   1.046       .  S
N732        H735   1.046   1_565  S
N732        H736   1.046       .  S
C741        C742   1.416       .  A
C741        C746   1.407   1_565  A
C742        C743   1.402       .  A
C742        N747   1.438       .  S
C743        C744   1.399   1_565  A
C743        H748   1.084       .  S
C744        C749   1.471       .  S
C744        C745   1.405       .  A
C745        C746   1.403       .  A
C745        N750   1.438       .  S
C746        H751   1.083       .  S
N747        H767   1.046       .  S
N747        H768   1.046       .  S
C749        C752   1.399       .  A
C749        C756   1.405       .  A
N750        H765   1.046       .  S
N750        H766   1.046       .  S
C752        C753   1.404       .  A
C752        H757   1.084       .  S
C753        C754   1.417       .  A
C753        N758   1.438       .  S
C754        C755   1.406       .  A
C755        C756   1.400       .  A
C755        H759   1.083       .  S
C756        N760   1.438       .  S
N758        H761   1.046       .  S
N758        H762   1.046       .  S
N760        H763   1.046       .  S
N760        H764   1.046       .  S
C769        C770   1.419       .  A
C769        C774   1.409       .  A
C770        C771   1.407   1_545  A
C770        N775   1.438       .  S
C771        C772   1.401       .  A
C771        H776   1.084       .  S
C772        C777   1.480       .  S
C772        C773   1.407   1_565  A
C773        C774   1.401       .  A
C773        N778   1.439       .  S
C774        H779   1.083       .  S
N775        H795   1.046       .  S
N775        H796   1.046   1_545  S
C777        C780   1.402       .  A
C777        C784   1.409       .  A
N778        H793   1.046       .  S
N778        H794   1.046   1_545  S
C780        C781   1.405       .  A
C780        H785   1.084   1_565  S
C781        C782   1.413       .  A
C781        N786   1.438       .  S
C782        C783   1.404       .  A
C783        C784   1.404       .  A
C783        H787   1.084       .  S
C784        N788   1.438       .  S
N786        H789   1.046       .  S
N786        H790   1.046       .  S
N788        H791   1.046       .  S
N788        H792   1.046       .  S
C797        C798   1.417       .  A
C797        C802   1.408       .  A
C798        C799   1.404       .  A
C798        N803   1.437       .  S
C799        C800   1.401       .  A
C799        H804   1.084       .  S
C800        C805   1.482       .  S
C800        C801   1.409       .  A
C801        C802   1.403       .  A
C801        N806   1.438   1_545  S
C802        H807   1.083       .  S
N803        H823   1.046       .  S
N803        H824   1.046       .  S
C805        C808   1.401       .  A
C805        C812   1.410       .  A
N806        H821   1.046       .  S
N806        H822   1.045       .  S
C808        C809   1.404       .  A
C808        H813   1.084       .  S
C809        C810   1.418       .  A
C809        N814   1.439       .  S
C810        C811   1.404       .  A
C811        C812   1.403       .  A
C811        H815   1.083       .  S
C812        N816   1.438       .  S
N814        H817   1.046       .  S
N814        H818   1.046       .  S
N816        H819   1.046       .  S
N816        H820   1.045       .  S
C825        C826   1.414       .  A
C825        C830   1.407       .  A
C826        C827   1.401       .  A
C826        N831   1.433       .  S
C827        C828   1.401       .  A
C827        H832   1.084       .  S
C828        C833   1.481       .  S
C828        C829   1.409       .  A
C829        C830   1.405       .  A
C829        N834   1.438       .  S
C830        H835   1.083       .  S
N831        H851   1.046       .  S
N831        H852   1.046       .  S
C833        C836   1.400       .  A
C833        C840   1.408       .  A
N834        H849   1.046       .  S
N834        H850   1.046       .  S
C836        C837   1.403       .  A
C836        H841   1.084       .  S
C837        C838   1.419       .  A
C837        N842   1.438       .  S
C838        C839   1.407       .  A
C839        C840   1.405       .  A
C839        H843   1.083       .  S
C840        N844   1.438       .  S
N842        H845   1.046       .  S
N842        H846   1.046       .  S
N844        H847   1.046       .  S
N844        H848   1.045       .  S
C853        C854   1.413       .  A
C853        C858   1.405       .  A
C854        C855   1.406       .  A
C854        N859   1.437       .  S
C855        C856   1.402       .  A
C855        H860   1.084       .  S
C856        C861   1.479       .  S
C856        C857   1.409       .  A
C857        C858   1.402       .  A
C857        N862   1.438       .  S
C858        H863   1.084       .  S
N859        H879   1.046       .  S
N859        H880   1.045       .  S
C861        C864   1.398   1_565  A
C861        C868   1.408       .  A
N862        H877   1.046       .  S
N862        H878   1.046       .  S
C864        C865   1.400       .  A
C864        H869   1.084       .  S
C865        C866   1.416       .  A
C865        N870   1.431       .  S
C866        C867   1.409   1_545  A
C867        C868   1.407       .  A
C867        H871   1.083       .  S
C868        N872   1.438       .  S
N870        H873   1.046       .  S
N870        H874   1.046       .  S
N872        H875   1.046       .  S
N872        H876   1.046       .  S
C881        C882   1.417       .  A
C881        C886   1.408       .  A
C882        C883   1.406       .  A
C882        N887   1.438       .  S
C883        C884   1.402       .  A
C883        H888   1.084       .  S
C884        C889   1.486       .  S
C884        C885   1.409       .  A
C885        C886   1.404       .  A
C885        N890   1.438       .  S
C886        H891   1.083       .  S
N887        H907   1.046   1_565  S
N887        H908   1.046   1_565  S
C889        C892   1.402       .  A
C889        C896   1.410       .  A
N890        H905   1.046       .  S
N890        H906   1.045       .  S
C892        C893   1.404       .  A
C892        H897   1.084       .  S
C893        C894   1.416       .  A
C893        N898   1.438       .  S
C894        C895   1.405       .  A
C895        C896   1.406       .  A
C895        H899   1.084       .  S
C896        N900   1.438       .  S
N898        H901   1.046       .  S
N898        H902   1.046       .  S
N900        H903   1.046       .  S
N900        H904   1.046       .  S
C909        C910   1.421   1_545  A
C909        C914   1.408       .  A
C910        C911   1.408       .  A
C910        N915   1.437       .  S
C911        C912   1.399       .  A
C911        H916   1.084       .  S
C912        C917   1.477       .  S
C912        C913   1.406       .  A
C913        C914   1.401   1_565  A
C913        N918   1.438       .  S
C914        H919   1.083       .  S
N915        H935   1.046   1_565  S
N915        H936   1.046       .  S
C917        C920   1.397       .  A
C917        C924   1.407       .  A
N918        H933   1.046       .  S
N918        H934   1.046       .  S
C920        C921   1.399       .  A
C920        H925   1.084       .  S
C921        C922   1.418       .  A
C921        N926   1.433       .  S
C922        C923   1.410       .  A
C923        C924   1.408       .  A
C923        H927   1.083       .  S
C924        N928   1.438       .  S
N926        H929   1.046       .  S
N926        H930   1.046       .  S
N928        H931   1.046       .  S
N928        H932   1.045       .  S
C937        C938   1.418       .  A
C937        C942   1.408       .  A
C938        C939   1.404       .  A
C938        N943   1.438       .  S
C939        C940   1.398       .  A
C939        H944   1.084       .  S
C940        C945   1.476       .  S
C940        C941   1.406       .  A
C941        C942   1.405       .  A
C941        N946   1.438       .  S
C942        H947   1.083       .  S
N943        H963   1.046       .  S
N943        H964   1.046       .  S
C945        C948   1.399       .  A
C945        C952   1.406       .  A
N946        H961   1.046       .  S
N946        H962   1.046       .  S
C948        C949   1.403       .  A
C948        H953   1.084       .  S
C949        C950   1.418       .  A
C949        N954   1.438       .  S
C950        C951   1.408       .  A
C951        C952   1.405       .  A
C951        H955   1.083       .  S
C952        N956   1.437       .  S
N954        H957   1.046       .  S
N954        H958   1.046       .  S
N956        H959   1.046       .  S
N956        H960   1.046       .  S
C965        C966   1.417       .  A
C965        C970   1.410       .  A
C966        C967   1.403       .  A
C966        N971   1.432       .  S
C967        C968   1.399       .  A
C967        H972   1.084       .  S
C968        C973   1.476       .  S
C968        C969   1.406       .  A
C969        C970   1.403       .  A
C969        N974   1.438       .  S
C970        H975   1.082       .  S
N971        H991   1.046       .  S
N971        H992   1.046       .  S
C973        C976   1.399       .  A
C973        C980   1.409       .  A
N974        H989   1.046       .  S
N974        H990   1.046       .  S
C976        C977   1.401       .  A
C976        H981   1.084       .  S
C977        C978   1.414       .  A
C977        N982   1.433       .  S
C978        C979   1.406       .  A
C979        C980   1.406       .  A
C979        H983   1.084       .  S
C980        N984   1.438       .  S
N982        H985   1.046       .  S
N982        H986   1.046       .  S
N984        H987   1.046       .  S
N984        H988   1.045       .  S
C993        C994   1.419       .  A
C993        C998   1.409       .  A
C994        C995   1.399       .  A
C994        N999   1.433       .  S
C995        C996   1.397       .  A
C995       H1000   1.084       .  S
C996       C1001   1.476       .  S
C996        C997   1.407       .  A
C997        C998   1.406       .  A
C997       N1002   1.438       .  S
C998       H1003   1.083       .  S
N999       H1019   1.046       .  S
N999       H1020   1.046       .  S
C1001      C1004   1.398       .  A
C1001      C1008   1.406       .  A
N1002      H1017   1.046       .  S
N1002      H1018   1.045       .  S
C1004      C1005   1.406       .  A
C1004      H1009   1.084       .  S
C1005      C1006   1.421       .  A
C1005      N1010   1.438       .  S
C1006      C1007   1.408       .  A
C1007      C1008   1.403       .  A
C1007      H1011   1.083       .  S
C1008      N1012   1.438       .  S
N1010      H1013   1.046       .  S
N1010      H1014   1.046       .  S
N1012      H1015   1.046       .  S
N1012      H1016   1.046       .  S
C1021      C1022   1.417       .  A
C1021      C1026   1.407       .  A
C1022      C1023   1.410       .  A
C1022      N1027   1.437       .  S
C1023      C1024   1.402       .  A
C1023      H1028   1.084       .  S
C1024      C1029   1.482       .  S
C1024      C1025   1.407       .  A
C1025      C1026   1.403       .  A
C1025      N1030   1.438       .  S
C1026      H1031   1.083       .  S
N1027      H1047   1.046       .  S
N1027      H1048   1.046       .  S
C1029      C1032   1.399       .  A
C1029      C1036   1.406       .  A
N1030      H1045   1.045       .  S
N1030      H1046   1.046       .  S
C1032      C1033   1.405       .  A
C1032      H1037   1.084       .  S
C1033      C1034   1.420       .  A
C1033      N1038   1.438       .  S
C1034      C1035   1.411       .  A
C1035      C1036   1.408       .  A
C1035      H1039   1.083       .  S
C1036      N1040   1.437       .  S
N1038      H1041   1.046       .  S
N1038      H1042   1.046       .  S
N1040      H1043   1.046       .  S
N1040      H1044   1.046       .  S
C1049      C1050   1.410       .  A
C1049      C1054   1.405       .  A
C1050      C1051   1.404       .  A
C1050      N1055   1.432       .  S
C1051      C1052   1.404       .  A
C1051      H1056   1.084       .  S
C1052      C1057   1.487       .  S
C1052      C1053   1.412       .  A
C1053      C1054   1.405       .  A
C1053      N1058   1.438       .  S
C1054      H1059   1.084       .  S
N1055      H1075   1.046       .  S
N1055      H1076   1.045       .  S
C1057      C1060   1.402       .  A
C1057      C1064   1.410       .  A
N1058      H1073   1.046       .  S
N1058      H1074   1.045       .  S
C1060      C1061   1.405       .  A
C1060      H1065   1.084       .  S
C1061      C1062   1.419       .  A
C1061      N1066   1.438       .  S
C1062      C1063   1.408       .  A
C1063      C1064   1.406       .  A
C1063      H1067   1.083       .  S
C1064      N1068   1.438       .  S
N1066      H1069   1.046       .  S
N1066      H1070   1.046       .  S
N1068      H1071   1.046       .  S
N1068      H1072   1.045       .  S
C1077      C1078   1.412       .  A
C1077      C1082   1.406       .  A
C1078      C1079   1.403       .  A
C1078      N1083   1.437       .  S
C1079      C1080   1.399       .  A
C1079      H1084   1.084       .  S
C1080      C1085   1.473       .  S
C1080      C1081   1.407       .  A
C1081      C1082   1.405       .  A
C1081      N1086   1.438       .  S
C1082      H1087   1.084       .  S
N1083      H1103   1.046       .  S
N1083      H1104   1.046       .  S
C1085      C1088   1.400       .  A
C1085      C1092   1.407       .  A
N1086      H1101   1.046       .  S
N1086      H1102   1.045       .  S
C1088      C1089   1.407       .  A
C1088      H1093   1.084       .  S
C1089      C1090   1.414       .  A
C1089      N1094   1.437       .  S
C1090      C1091   1.404       .  A
C1091      C1092   1.400       .  A
C1091      H1095   1.084       .  S
C1092      N1096   1.438       .  S
N1094      H1097   1.045       .  S
N1094      H1098   1.046       .  S
N1096      H1099   1.046       .  S
N1096      H1100   1.045       .  S
C1105      C1106   1.418       .  A
C1105      C1110   1.407       .  A
C1106      C1107   1.406       .  A
C1106      N1111   1.437       .  S
C1107      C1108   1.402       .  A
C1107      H1112   1.084       .  S
C1108      C1113   1.485   1_554  S
C1108      C1109   1.409   1_554  A
C1109      C1110   1.404   1_556  A
C1109      N1114   1.438       .  S
C1110      H1115   1.083       .  S
N1111      H1131   1.046       .  S
N1111      H1132   1.046       .  S
C1113      C1116   1.401       .  A
C1113      C1120   1.410       .  A
N1114      H1129   1.046       .  S
N1114      H1130   1.045       .  S
C1116      C1117   1.403       .  A
C1116      H1121   1.084       .  S
C1117      C1118   1.416       .  A
C1117      N1122   1.433       .  S
C1118      C1119   1.408       .  A
C1119      C1120   1.406       .  A
C1119      H1123   1.083       .  S
C1120      N1124   1.438   1_556  S
N1122      H1125   1.046       .  S
N1122      H1126   1.046       .  S
N1124      H1127   1.046       .  S
N1124      H1128   1.046       .  S
C1133      C1134   1.413       .  A
C1133      C1138   1.404       .  A
C1134      C1135   1.404       .  A
C1134      N1139   1.439       .  S
C1135      C1136   1.403       .  A
C1135      H1140   1.084       .  S
C1136      C1141   1.485       .  S
C1136      C1137   1.411       .  A
C1137      C1138   1.408       .  A
C1137      N1142   1.437       .  S
C1138      H1143   1.084   1_554  S
N1139      H1159   1.046       .  S
N1139      H1160   1.046       .  S
C1141      C1144   1.403       .  A
C1141      C1148   1.409       .  A
N1142      H1157   1.046   1_554  S
N1142      H1158   1.046       .  S
C1144      C1145   1.408       .  A
C1144      H1149   1.084   1_554  S
C1145      C1146   1.416       .  A
C1145      N1150   1.438       .  S
C1146      C1147   1.405       .  A
C1147      C1148   1.404       .  A
C1147      H1151   1.084       .  S
C1148      N1152   1.438       .  S
N1150      H1153   1.045   1_554  S
N1150      H1154   1.046       .  S
N1152      H1155   1.046       .  S
N1152      H1156   1.045       .  S
C1161      C1162   1.417       .  A
C1161      C1166   1.409       .  A
C1162      C1163   1.405       .  A
C1162      N1167   1.436       .  S
C1163      C1164   1.401       .  A
C1163      H1168   1.084       .  S
C1164      C1169   1.484   1_556  S
C1164      C1165   1.408       .  A
C1165      C1166   1.406       .  A
C1165      N1170   1.438   1_556  S
C1166      H1171   1.083       .  S
N1167      H1187   1.046       .  S
N1167      H1188   1.045       .  S
C1169      C1172   1.400       .  A
C1169      C1176   1.408       .  A
N1170      H1185   1.046       .  S
N1170      H1186   1.045       .  S
C1172      C1173   1.405       .  A
C1172      H1177   1.084       .  S
C1173      C1174   1.420       .  A
C1173      N1178   1.438       .  S
C1174      C1175   1.408       .  A
C1175      C1176   1.405       .  A
C1175      H1179   1.083       .  S
C1176      N1180   1.438   1_554  S
N1178      H1181   1.046       .  S
N1178      H1182   1.046       .  S
N1180      H1183   1.046       .  S
N1180      H1184   1.046       .  S
C1189      C1190   1.419       .  A
C1189      C1194   1.409       .  A
C1190      C1191   1.405       .  A
C1190      N1195   1.437       .  S
C1191      C1192   1.399       .  A
C1191      H1196   1.084       .  S
C1192      C1197   1.476       .  S
C1192      C1193   1.405       .  A
C1193      C1194   1.402       .  A
C1193      N1198   1.438       .  S
C1194      H1199   1.083       .  S
N1195      H1215   1.046       .  S
N1195      H1216   1.046       .  S
C1197      C1200   1.398       .  A
C1197      C1204   1.405       .  A
N1198      H1213   1.046       .  S
N1198      H1214   1.046       .  S
C1200      C1201   1.402       .  A
C1200      H1205   1.084       .  S
C1201      C1202   1.418       .  A
C1201      N1206   1.432       .  S
C1202      C1203   1.410       .  A
C1203      C1204   1.405       .  A
C1203      H1207   1.083       .  S
C1204      N1208   1.438       .  S
N1206      H1209   1.046       .  S
N1206      H1210   1.046       .  S
N1208      H1211   1.046       .  S
N1208      H1212   1.046       .  S
C1217      C1218   1.420       .  A
C1217      C1222   1.409       .  A
C1218      C1219   1.402       .  A
C1218      N1223   1.437       .  S
C1219      C1220   1.398       .  A
C1219      H1224   1.084       .  S
C1220      C1225   1.477       .  S
C1220      C1221   1.407       .  A
C1221      C1222   1.404       .  A
C1221      N1226   1.438       .  S
C1222      H1227   1.083       .  S
N1223      H1243   1.046       .  S
N1223      H1244   1.046       .  S
C1225      C1228   1.400       .  A
C1225      C1232   1.408       .  A
N1226      H1241   1.046       .  S
N1226      H1242   1.046       .  S
C1228      C1229   1.404       .  A
C1228      H1233   1.084       .  S
C1229      C1230   1.418       .  A
C1229      N1234   1.439       .  S
C1230      C1231   1.403       .  A
C1231      C1232   1.401       .  A
C1231      H1235   1.084       .  S
C1232      N1236   1.438       .  S
N1234      H1237   1.046       .  S
N1234      H1238   1.045       .  S
N1236      H1239   1.046       .  S
N1236      H1240   1.046       .  S
C1245      C1246   1.417       .  A
C1245      C1250   1.408       .  A
C1246      C1247   1.407       .  A
C1246      N1251   1.436       .  S
C1247      C1248   1.399       .  A
C1247      H1252   1.084       .  S
C1248      C1253   1.477       .  S
C1248      C1249   1.407       .  A
C1249      C1250   1.404       .  A
C1249      N1254   1.438       .  S
C1250      H1255   1.083       .  S
N1251      H1271   1.046       .  S
N1251      H1272   1.045       .  S
C1253      C1256   1.401       .  A
C1253      C1260   1.407       .  A
N1254      H1269   1.046       .  S
N1254      H1270   1.045       .  S
C1256      C1257   1.407       .  A
C1256      H1261   1.084       .  S
C1257      C1258   1.414       .  A
C1257      N1262   1.438       .  S
C1258      C1259   1.405       .  A
C1259      C1260   1.403       .  A
C1259      H1263   1.084       .  S
C1260      N1264   1.438       .  S
N1262      H1265   1.046       .  S
N1262      H1266   1.046       .  S
N1264      H1267   1.046       .  S
N1264      H1268   1.045       .  S
C1273      C1274   1.419       .  A
C1273      C1278   1.407       .  A
C1274      C1275   1.404       .  A
C1274      N1279   1.438       .  S
C1275      C1276   1.399       .  A
C1275      H1280   1.084       .  S
C1276      C1281   1.480   1_554  S
C1276      C1277   1.407       .  A
C1277      C1278   1.407       .  A
C1277      N1282   1.437       .  S
C1278      H1283   1.083       .  S
N1279      H1299   1.046       .  S
N1279      H1300   1.046       .  S
C1281      C1284   1.399       .  A
C1281      C1288   1.407       .  A
N1282      H1297   1.046       .  S
N1282      H1298   1.046   1_554  S
C1284      C1285   1.408       .  A
C1284      H1289   1.084   1_556  S
C1285      C1286   1.421       .  A
C1285      N1290   1.437       .  S
C1286      C1287   1.408       .  A
C1287      C1288   1.403       .  A
C1287      H1291   1.083       .  S
C1288      N1292   1.438       .  S
N1290      H1293   1.046   1_556  S
N1290      H1294   1.046       .  S
N1292      H1295   1.046       .  S
N1292      H1296   1.046       .  S
C1301      C1302   1.418       .  A
C1301      C1306   1.410       .  A
C1302      C1303   1.406       .  A
C1302      N1307   1.438       .  S
C1303      C1304   1.401       .  A
C1303      H1308   1.084       .  S
C1304      C1309   1.487       .  S
C1304      C1305   1.408       .  A
C1305      C1306   1.408       .  A
C1305      N1310   1.438       .  S
C1306      H1311   1.083       .  S
N1307      H1327   1.045       .  S
N1307      H1328   1.046   1_556  S
C1309      C1312   1.402       .  A
C1309      C1316   1.408       .  A
N1310      H1325   1.046       .  S
N1310      H1326   1.046       .  S
C1312      C1313   1.408       .  A
C1312      H1317   1.084       .  S
C1313      C1314   1.417       .  A
C1313      N1318   1.437       .  S
C1314      C1315   1.408       .  A
C1315      C1316   1.404       .  A
C1315      H1319   1.082       .  S
C1316      N1320   1.438       .  S
N1318      H1321   1.046       .  S
N1318      H1322   1.046       .  S
N1320      H1323   1.046   1_556  S
N1320      H1324   1.046       .  S
C1329      C1330   1.422       .  A
C1329      C1334   1.410       .  A
C1330      C1331   1.406       .  A
C1330      N1335   1.438       .  S
C1331      C1332   1.399       .  A
C1331      H1336   1.084       .  S
C1332      C1337   1.480       .  S
C1332      C1333   1.405       .  A
C1333      C1334   1.406       .  A
C1333      N1338   1.438       .  S
C1334      H1339   1.083       .  S
N1335      H1355   1.046       .  S
N1335      H1356   1.046       .  S
C1337      C1340   1.400       .  A
C1337      C1344   1.405   1_556  A
N1338      H1353   1.046       .  S
N1338      H1354   1.046   1_556  S
C1340      C1341   1.410   1_556  A
C1340      H1345   1.084       .  S
C1341      C1342   1.421       .  A
C1341      N1346   1.438   1_554  S
C1342      C1343   1.411       .  A
C1343      C1344   1.402       .  A
C1343      H1347   1.083       .  S
C1344      N1348   1.438       .  S
N1346      H1349   1.046       .  S
N1346      H1350   1.045       .  S
N1348      H1351   1.046       .  S
N1348      H1352   1.046       .  S
C1357      C1358   1.417       .  A
C1357      C1362   1.406       .  A
C1358      C1359   1.407       .  A
C1358      N1363   1.438       .  S
C1359      C1360   1.401       .  A
C1359      H1364   1.084       .  S
C1360      C1365   1.479       .  S
C1360      C1361   1.408       .  A
C1361      C1362   1.403       .  A
C1361      N1366   1.438       .  S
C1362      H1367   1.084       .  S
N1363      H1383   1.046       .  S
N1363      H1384   1.046       .  S
C1365      C1368   1.399       .  A
C1365      C1372   1.407       .  A
N1366      H1381   1.046       .  S
N1366      H1382   1.046       .  S
C1368      C1369   1.406       .  A
C1368      H1373   1.084       .  S
C1369      C1370   1.422       .  A
C1369      N1374   1.438       .  S
C1370      C1371   1.409       .  A
C1371      C1372   1.404       .  A
C1371      H1375   1.083       .  S
C1372      N1376   1.438       .  S
N1374      H1377   1.046       .  S
N1374      H1378   1.046       .  S
N1376      H1379   1.046       .  S
N1376      H1380   1.046       .  S
C1385      C1386   1.415       .  A
C1385      C1390   1.406       .  A
C1386      C1387   1.407       .  A
C1386      N1391   1.438       .  S
C1387      C1388   1.401       .  A
C1387      H1392   1.084       .  S
C1388      C1393   1.477       .  S
C1388      C1389   1.406       .  A
C1389      C1390   1.404       .  A
C1389      N1394   1.438       .  S
C1390      H1395   1.084       .  S
N1391      H1411   1.046       .  S
N1391      H1412   1.046       .  S
C1393      C1396   1.401       .  A
C1393      C1400   1.408       .  A
N1394      H1409   1.046       .  S
N1394      H1410   1.045       .  S
C1396      C1397   1.407       .  A
C1396      H1401   1.084       .  S
C1397      C1398   1.412       .  A
C1397      N1402   1.438       .  S
C1398      C1399   1.404       .  A
C1399      C1400   1.404       .  A
C1399      H1403   1.084       .  S
C1400      N1404   1.438       .  S
N1402      H1405   1.046       .  S
N1402      H1406   1.046       .  S
N1404      H1407   1.046       .  S
N1404      H1408   1.045       .  S
C1413      C1414   1.417       .  A
C1413      C1418   1.409       .  A
C1414      C1415   1.404       .  A
C1414      N1419   1.432       .  S
C1415      C1416   1.401       .  A
C1415      H1420   1.084       .  S
C1416      C1421   1.482       .  S
C1416      C1417   1.408       .  A
C1417      C1418   1.403       .  A
C1417      N1422   1.438       .  S
C1418      H1423   1.083       .  S
N1419      H1439   1.045       .  S
N1419      H1440   1.046       .  S
C1421      C1424   1.402       .  A
C1421      C1428   1.407       .  A
N1422      H1437   1.046       .  S
N1422      H1438   1.045       .  S
C1424      C1425   1.405       .  A
C1424      H1429   1.084       .  S
C1425      C1426   1.417       .  A
C1425      N1430   1.438       .  S
C1426      C1427   1.408       .  A
C1427      C1428   1.404       .  A
C1427      H1431   1.083       .  S
C1428      N1432   1.438       .  S
N1430      H1433   1.046       .  S
N1430      H1434   1.046       .  S
N1432      H1435   1.046       .  S
N1432      H1436   1.045       .  S
C1441      C1442   1.414       .  A
C1441      C1446   1.405       .  A
C1442      C1443   1.405       .  A
C1442      N1447   1.438       .  S
C1443      C1444   1.402       .  A
C1443      H1448   1.084       .  S
C1444      C1449   1.483       .  S
C1444      C1445   1.410       .  A
C1445      C1446   1.404       .  A
C1445      N1450   1.438       .  S
C1446      H1451   1.084       .  S
N1447      H1467   1.046       .  S
N1447      H1468   1.046       .  S
C1449      C1452   1.400       .  A
C1449      C1456   1.408       .  A
N1450      H1465   1.046       .  S
N1450      H1466   1.046       .  S
C1452      C1453   1.407       .  A
C1452      H1457   1.084       .  S
C1453      C1454   1.421       .  A
C1453      N1458   1.438       .  S
C1454      C1455   1.409       .  A
C1455      C1456   1.403       .  A
C1455      H1459   1.082       .  S
C1456      N1460   1.438       .  S
N1458      H1461   1.046       .  S
N1458      H1462   1.046       .  S
N1460      H1463   1.046       .  S
N1460      H1464   1.046       .  S
C1469      C1470   1.414       .  A
C1469      C1474   1.404       .  A
C1470      C1471   1.405       .  A
C1470      N1475   1.438       .  S
C1471      C1472   1.402       .  A
C1471      H1476   1.084       .  S
C1472      C1477   1.482       .  S
C1472      C1473   1.410       .  A
C1473      C1474   1.404       .  A
C1473      N1478   1.438       .  S
C1474      H1479   1.084       .  S
N1475      H1495   1.046       .  S
N1475      H1496   1.046       .  S
C1477      C1480   1.403       .  A
C1477      C1484   1.410       .  A
N1478      H1493   1.046       .  S
N1478      H1494   1.046       .  S
C1480      C1481   1.405       .  A
C1480      H1485   1.084       .  S
C1481      C1482   1.412       .  A
C1481      N1486   1.438       .  S
C1482      C1483   1.404       .  A
C1483      C1484   1.404       .  A
C1483      H1487   1.084       .  S
C1484      N1488   1.438       .  S
N1486      H1489   1.046       .  S
N1486      H1490   1.046       .  S
N1488      H1491   1.046       .  S
N1488      H1492   1.046       .  S
C1497      C1498   1.417       .  A
C1497      C1502   1.406       .  A
C1498      C1499   1.405       .  A
C1498      N1503   1.438       .  S
C1499      C1500   1.397       .  A
C1499      H1504   1.084       .  S
C1500      C1505   1.472       .  S
C1500      C1501   1.407       .  A
C1501      C1502   1.403       .  A
C1501      N1506   1.438       .  S
C1502      H1507   1.083       .  S
N1503      H1523   1.046       .  S
N1503      H1524   1.046       .  S
C1505      C1508   1.398       .  A
C1505      C1512   1.406       .  A
N1506      H1521   1.046       .  S
N1506      H1522   1.045       .  S
C1508      C1509   1.404       .  A
C1508      H1513   1.084       .  S
C1509      C1510   1.417       .  A
C1509      N1514   1.438       .  S
C1510      C1511   1.407       .  A
C1511      C1512   1.403       .  A
C1511      H1515   1.084       .  S
C1512      N1516   1.438       .  S
N1514      H1517   1.046       .  S
N1514      H1518   1.046       .  S
N1516      H1519   1.046       .  S
N1516      H1520   1.045       .  S
C1525      C1526   1.415       .  A
C1525      C1530   1.409       .  A
C1526      C1527   1.400       .  A
C1526      N1531   1.432       .  S
C1527      C1528   1.398       .  A
C1527      H1532   1.084       .  S
C1528      C1533   1.472       .  S
C1528      C1529   1.405       .  A
C1529      C1530   1.403       .  A
C1529      N1534   1.438       .  S
C1530      H1535   1.083       .  S
N1531      H1551   1.046       .  S
N1531      H1552   1.046       .  S
C1533      C1536   1.397       .  A
C1533      C1540   1.405       .  A
N1534      H1549   1.046       .  S
N1534      H1550   1.046       .  S
C1536      C1537   1.400       .  A
C1536      H1541   1.084       .  S
C1537      C1538   1.417       .  A
C1537      N1542   1.432       .  S
C1538      C1539   1.410       .  A
C1539      C1540   1.402       .  A
C1539      H1543   1.083       .  S
C1540      N1544   1.438       .  S
N1542      H1545   1.046       .  S
N1542      H1546   1.046       .  S
N1544      H1547   1.046       .  S
N1544      H1548   1.045       .  S
C1553      C1554   1.414       .  A
C1553      C1558   1.407       .  A
C1554      C1555   1.404       .  A
C1554      N1559   1.438       .  S
C1555      C1556   1.399       .  A
C1555      H1560   1.084       .  S
C1556      C1561   1.473       .  S
C1556      C1557   1.406       .  A
C1557      C1558   1.403       .  A
C1557      N1562   1.438       .  S
C1558      H1563   1.083       .  S
N1559      H1579   1.045       .  S
N1559      H1580   1.046       .  S
C1561      C1564   1.396       .  A
C1561      C1568   1.405       .  A
N1562      H1577   1.045       .  S
N1562      H1578   1.046       .  S
C1564      C1565   1.403       .  A
C1564      H1569   1.084       .  S
C1565      C1566   1.422       .  A
C1565      N1570   1.438       .  S
C1566      C1567   1.409       .  A
C1567      C1568   1.405       .  A
C1567      H1571   1.083       .  S
C1568      N1572   1.438       .  S
N1570      H1573   1.046       .  S
N1570      H1574   1.046       .  S
N1572      H1575   1.045       .  S
N1572      H1576   1.046       .  S
