geometry optimzed in LAMMPS
_audit_creation_date              2020-11-30 
_audit_creation_method            'lammps2cif' 
_symmetry_space_group_name_H-M    'P1' 
_symmetry_Int_Tables_number       1 
_symmetry_cell_setting            triclinic 
loop_ 
_symmetry_equiv_pos_as_xyz 
  x,y,z 
_cell_length_a                    31.907034591118364 
_cell_length_b                    32.16246913497519 
_cell_length_c                    31.914465238226366 
_cell_angle_alpha                 90.13304152860583 
_cell_angle_beta                  89.87876693598264 
_cell_angle_gamma                 87.79755547196801 
loop_ 
_atom_site_label 
_atom_site_type_symbol 
_atom_site_fract_x 
_atom_site_fract_y 
_atom_site_fract_z 
_atom_site_charge 
N1          N  0.40992047  0.02129971  0.45508765    -0.06500
N2          N  0.38699875  0.03544686  0.42338144    -0.58620
N3          N  0.41303496  0.48036798  0.05211890    -0.06180
N4          N  0.39227907  0.46684476  0.08495514    -0.60750
N5          N  0.41224726  0.02125647  0.05176749    -0.05780
N6          N  0.39109469  0.03636810  0.08425471    -0.58590
N7          N  0.41061688  0.48044772  0.45555440    -0.05450
N8          N  0.38836790  0.46606116  0.42434235    -0.61100
C9          C  0.37373658  0.50052442  0.40426807     0.95680
C10         C  0.37902330  0.00222544  0.10494542     0.95460
N11         N  0.02468902  0.40665346  0.04750439    -0.06680
N12         N  0.03900952  0.38103560  0.07711978    -0.59200
N13         N  0.48065959  0.41054773  0.45268830    -0.04800
N14         N  0.46468415  0.38944803  0.42152324    -0.60450
N15         N  0.02190486  0.40899135  0.45074289    -0.06710
N16         N  0.03489131  0.38662189  0.41804163    -0.59460
N17         N  0.48351507  0.40928801  0.04855423    -0.04450
N18         N  0.46915063  0.38587007  0.07859095    -0.60540
Mn19       Mn  0.44609019  0.44433121  0.00244375     1.18440
C20         C  0.00370491  0.36797659  0.09612693     0.97760
C21         C  0.49873526  0.37470566  0.40032825     0.98420
N22         N  0.48062172  0.08823268  0.05113853    -0.06730
N23         N  0.46688310  0.10995036  0.08393654    -0.63040
N24         N  0.01988638  0.08805261  0.45343399    -0.05540
N25         N  0.03342151  0.10932261  0.42110039    -0.63720
N26         N  0.47868624  0.08899481  0.45421942    -0.06240
N27         N  0.46340446  0.11098648  0.42251289    -0.63310
N28         N  0.02181483  0.08686316  0.05016371    -0.05140
N29         N  0.03679518  0.10771123  0.08207762    -0.64000
Mn30       Mn  0.44427086  0.05606972  0.50295759     1.10660
C31         C  0.00234718  0.12191311  0.10321328     0.98980
C32         C  0.49782366  0.12334797  0.40186220     0.99060
N33         N  0.09131422  0.47678660  0.45024323    -0.06250
N34         N  0.11383414  0.46313802  0.41787448    -0.61620
N35         N  0.09219738  0.01580394  0.04739453    -0.05570
N36         N  0.11470587  0.02946882  0.07874946    -0.58350
N37         N  0.09308195  0.47486289  0.04697403    -0.06880
N38         N  0.11612662  0.45988615  0.07824638    -0.61190
N39         N  0.09016193  0.01772079  0.45127176    -0.05860
N40         N  0.11161243  0.03269735  0.41974223    -0.58370
Mn41       Mn  0.05903556  0.44063254  0.99875413     1.20190
Mn42       Mn  0.05699025  0.05308999  0.50063106     1.10090
Cl43       Cl  0.00170533  0.99847791  0.00122290    -0.86340
C44         C  0.12646843  0.49837350  0.39926385     0.95990
C45         C  0.12929564  0.99435840  0.09789326     0.95790
C46         C  0.49491225  0.27160283  0.25058930     0.00180
C47         C  0.49891862  0.22814784  0.25194839     0.00180
C48         C  0.27195695  0.50938239  0.25236941     0.00180
C49         C  0.22876590  0.51245756  0.24879844     0.00180
C50         C  0.18593737  0.02674371  0.13633930    -0.06160
C51         C  0.15735688  0.49487468  0.13474496    -0.00230
C52         C  0.15407211  0.46774072  0.16928613    -0.08810
C53         C  0.17921223  0.47439925  0.20465775    -0.06180
C54         C  0.20689246  0.50753369  0.20729485    -0.00250
C55         C  0.21000710  0.03455755  0.17201476    -0.08710
C56         C  0.23531666  0.07339290  0.16925448     0.61660
H57         H  0.18827515  0.04725413  0.10954268     0.12360
H58         H  0.17688485  0.45379804  0.23125502     0.12370
C59         C  0.12323412  0.43293829  0.16976680     0.61900
F60         F  0.20907332  0.60688421  0.15844799    -0.23270
F61         F  0.26558603  0.56788777  0.13839591    -0.20600
F62         F  0.25462316  0.08342395  0.20589399    -0.20270
F63         F  0.12269585  0.41281934  0.20806002    -0.20330
F64         F  0.13437368  0.90377278  0.13942191    -0.20650
F65         F  0.08316582  0.94889992  0.16204698    -0.23320
C66         C  0.20938223  0.97681398  0.31518399    -0.06160
C67         C  0.20139367  0.51008143  0.28734379    -0.00230
C68         C  0.16604294  0.53752751  0.29516240    -0.08810
C69         C  0.14299271  0.53246882  0.33238547    -0.06180
C70         C  0.15240804  0.50021074  0.36077479    -0.00250
C71         C  0.18632652  0.97187678  0.35223450    -0.08710
C72         C  0.19911405  0.93717646  0.38236106     0.61660
H73         H  0.23352095  0.95374497  0.30717870     0.12360
H74         H  0.11616589  0.55307697  0.33906682     0.12370
C75         C  0.15021872  0.57040724  0.26403453     0.61900
F76         F  0.23656614  0.41720858  0.37065676    -0.23270
F77         F  0.16857701  0.40780420  0.38324428    -0.20600
F78         F  0.20436646  0.95330799  0.42215888    -0.20270
F79         F  0.13188206  0.55140628  0.23023615    -0.20330
F80         F  0.18231891  0.09416949  0.25000621    -0.20650
F81         F  0.12028449  0.59740902  0.28175310    -0.23320
C82         C  0.32952161  0.53508487  0.20927118    -0.06160
C83         C  0.30030141  0.50413998  0.21511163    -0.00230
C84         C  0.30119803  0.46945904  0.18732016    -0.08810
C85         C  0.32697389  0.47048638  0.15155899    -0.06180
C86         C  0.35370881  0.50330255  0.14402982    -0.00250
C87         C  0.35634904  0.03541250  0.17436848    -0.08710
C88         C  0.38741164  0.06979264  0.17082197     0.61660
H89         H  0.33012920  0.06019524  0.23192955     0.12360
H90         H  0.32646479  0.44490214  0.12939500     0.12370
C91         C  0.27811038  0.42966218  0.19417535     0.61900
F92         F  0.39018554  0.59165578  0.20796087    -0.23270
F93         F  0.37484213  0.59731115  0.13972255    -0.20600
F94         F  0.42705569  0.05318481  0.16186238    -0.20270
F95         F  0.25664017  0.42882623  0.23165231    -0.20330
F96         F  0.30686031  0.89633240  0.19410636    -0.20650
F97         F  0.25011021  0.92443114  0.16177899    -0.23320
C98         C  0.31477104  0.47029694  0.30468878    -0.06160
C99         C  0.29451007  0.50835447  0.29392703    -0.00230
C100        C  0.30038686  0.04342177  0.32038227    -0.08810
C101        C  0.32671083  0.03892562  0.35537195    -0.06180
C102        C  0.34625657  0.50077388  0.36645660    -0.00250
C103        C  0.33933706  0.46525445  0.34105574    -0.08710
C104        C  0.35764568  0.42213280  0.35133259     0.61660
H105        H  0.31090714  0.44402509  0.28410110     0.12360
H106        H  0.33170116  0.06607510  0.37467866     0.12370
C107        C  0.28160249  0.08675212  0.31383636     0.61900
F108        F  0.34721467  0.39280590  0.32167070    -0.23270
F109        F  0.34216708  0.90922679  0.38945952    -0.20600
F110        F  0.40091665  0.42286077  0.35279589    -0.20270
F111        F  0.25358777  0.08899795  0.28170657    -0.20330
F112        F  0.31326361  0.61369402  0.30548093    -0.20650
F113        F  0.26072533  0.09987139  0.34984247    -0.23320
C114        C  0.53652689  0.18494020  0.19860556    -0.06160
C115        C  0.49823287  0.20304687  0.21218765    -0.00230
C116        C  0.46078243  0.19217844  0.19115091    -0.08810
C117        C  0.46410644  0.16606028  0.15579349    -0.06180
C118        C  0.50270432  0.14863586  0.14163623    -0.00250
C119        C  0.53958667  0.15687813  0.16476427    -0.08710
C120        C  0.58190252  0.13523392  0.15567213     0.61660
H121        H  0.56438941  0.19225709  0.21550285     0.12360
H122        H  0.43563727  0.15876488  0.13932770     0.12370
C123        C  0.41631061  0.20521061  0.20467289     0.61900
F124        F  0.11149419  0.14393906  0.18582567    -0.23270
F125        F  0.09713550  0.14821497  0.11749748    -0.20600
F126        F  0.57777825  0.09255582  0.15530014    -0.20270
F127        F  0.89505983  0.22320449  0.17130539    -0.20330
F128        F  0.41457221  0.23281900  0.23793683    -0.20650
F129        F  0.39514030  0.17046826  0.21625327    -0.23320
C130        C  0.03216686  0.17368753  0.35580554    -0.06160
C131        C  0.49732548  0.14947022  0.36339728    -0.00230
C132        C  0.46447259  0.14972955  0.33364841    -0.08810
C133        C  0.46748865  0.17522965  0.29819629    -0.06090
C134        C  0.50136844  0.20106681  0.29088873    -0.00250
C135        C  0.03534757  0.19914190  0.32005863    -0.08710
C136        C  0.07566849  0.22188210  0.31390327     0.61660
H137        H  0.05736246  0.17231827  0.37846608     0.12360
H138        H  0.44241582  0.17531646  0.27604191     0.12370
C139        C  0.42652410  0.12282809  0.33827106     0.61900
F140        F  0.10230026  0.21751918  0.34795178    -0.23270
F141        F  0.06726790  0.26376030  0.30872603    -0.20600
F142        F  0.09689340  0.20580458  0.27954270    -0.20270
F143        F  0.40232265  0.13661017  0.37188967    -0.20330
F144        F  0.43947282  0.08174138  0.34430098    -0.20650
F145        F  0.40129768  0.12430924  0.30302863    -0.23320
C146        C  0.03867761  0.33252214  0.15671327    -0.06160
C147        C  0.50254206  0.33849421  0.13214204    -0.00230
C148        C  0.46574824  0.31766221  0.14362420    -0.08810
C149        C  0.46558222  0.29529276  0.18137134    -0.06180
C150        C  0.50034986  0.29218446  0.20817620    -0.00250
C151        C  0.03835502  0.30982377  0.19458760    -0.08710
C152        C  0.07804743  0.30651000  0.22034781     0.61660
H153        H  0.06681902  0.34764808  0.14709061     0.12360
H154        H  0.43658066  0.28336063  0.19195425     0.12370
C155        C  0.42605163  0.31942985  0.11713915     0.61900
F156        F  0.11138201  0.32475115  0.20069550    -0.23270
F157        F  0.08916891  0.26522131  0.22635077    -0.20600
F158        F  0.57173769  0.32615229  0.25849359    -0.20270
F159        F  0.93574769  0.31017138  0.07581029    -0.20330
F160        F  0.40659964  0.35850659  0.12001223    -0.20650
F161        F  0.39736437  0.29113162  0.13021387    -0.23320
C162        C  0.47984233  0.28312580  0.32950095    -0.06160
C163        C  0.48594214  0.29998683  0.28911337    -0.00230
C164        C  0.98481847  0.34467163  0.28738030    -0.08810
C165        C  0.99413656  0.36718353  0.32389184    -0.06180
C166        C  0.49595671  0.34810007  0.36301215    -0.00250
C167        C  0.48658206  0.30587588  0.36638362    -0.08710
C168        C  0.48407624  0.28503453  0.40894580     0.61660
H169        H  0.46785987  0.25279701  0.33310574     0.12360
H170        H  0.99618671  0.40073100  0.32255021     0.12370
C171        C  0.96198711  0.36945104  0.25318324     0.61900
F172        F  0.47723840  0.24293616  0.40553696    -0.23270
F173        F  0.45157482  0.30322758  0.43208432    -0.20600
F174        F  0.02132159  0.28953411  0.43022915    -0.20270
F175        F  0.42871915  0.34761232  0.23807742    -0.20330
F176        F  0.98902816  0.37912158  0.22125331    -0.20650
F177        F  0.94481139  0.40666584  0.26860973    -0.23320
N178        N  0.40991686  0.02127932  0.95509462    -0.06500
N179        N  0.38699466  0.03542033  0.92338660    -0.58620
N180        N  0.41303128  0.48037613  0.55212120    -0.06180
N181        N  0.39227348  0.46685359  0.58495654    -0.60750
N182        N  0.41225319  0.02125566  0.55176463    -0.05780
N183        N  0.39111258  0.03635993  0.58426313    -0.58590
N184        N  0.41062054  0.48043523  0.95555126    -0.05450
N185        N  0.38837182  0.46604826  0.92433888    -0.61100
C186        C  0.37374001  0.50051191  0.90426474     0.95680
C187        C  0.37904406  0.00221202  0.60494721     0.95460
N188        N  0.02469126  0.40664683  0.54750620    -0.06680
N189        N  0.03901006  0.38102778  0.57712133    -0.59200
N190        N  0.48066546  0.41053310  0.95269330    -0.04800
N191        N  0.46468939  0.38942309  0.92153590    -0.60450
N192        N  0.02190188  0.40899815  0.95074074    -0.06710
N193        N  0.03488834  0.38663026  0.91803838    -0.59460
N194        N  0.48350480  0.40928810  0.54854937    -0.04450
N195        N  0.46913662  0.38586392  0.57857912    -0.60540
Mn196      Mn  0.44608442  0.44434007  0.50244308     1.18440
C197        C  0.00370435  0.36797040  0.59612779     0.97760
C198        C  0.49873961  0.37467683  0.90034216     0.98420
N199        N  0.48062901  0.08822971  0.55114515    -0.06730
N200        N  0.46688940  0.10994637  0.58394295    -0.63040
N201        N  0.01988208  0.08803461  0.95341992    -0.05540
N202        N  0.03341245  0.10930973  0.92108811    -0.63720
N203        N  0.47867402  0.08898575  0.95421246    -0.06240
N204        N  0.46338920  0.11098245  0.92251066    -0.63310
N205        N  0.02180828  0.08686600  0.55017824    -0.05140
N206        N  0.03678663  0.10770956  0.58209588    -0.64000
Mn207      Mn  0.44426410  0.05606264  0.00295610     1.10660
C208        C  0.00233702  0.12191108  0.60322854     0.98980
C209        C  0.49780686  0.12334987  0.90186118     0.99060
N210        N  0.09130856  0.47679520  0.95024226    -0.06250
N211        N  0.11383043  0.46314588  0.91787538    -0.61620
N212        N  0.09218489  0.01580097  0.54741097    -0.05570
N213        N  0.11469543  0.02945821  0.57876813    -0.58350
N214        N  0.09308825  0.47485365  0.54697572    -0.06880
N215        N  0.11613358  0.45987668  0.57824749    -0.61190
N216        N  0.09015981  0.01770488  0.95125565    -0.05860
N217        N  0.11161001  0.03267796  0.91972404    -0.58370
Mn218      Mn  0.05903994  0.44062459  0.49875589     1.20190
Mn219      Mn  0.05699305  0.05308104  0.00061533     1.10090
Cl220      Cl  0.00169779  0.99849237  0.50122219    -0.86340
C221        C  0.12646466  0.49838092  0.89926437     0.95990
C222        C  0.12928037  0.99434317  0.59790705     0.95790
C223        C  0.49490387  0.27160530  0.75058309     0.00180
C224        C  0.49890814  0.22815051  0.75194974     0.00180
C225        C  0.27195424  0.50938317  0.75237199     0.00180
C226        C  0.22876352  0.51245968  0.74880129     0.00180
C227        C  0.18595113  0.02670119  0.63633377    -0.06160
C228        C  0.15736409  0.49486676  0.63474533    -0.00230
C229        C  0.15408461  0.46772922  0.66928421    -0.08810
C230        C  0.17921990  0.47439290  0.70465803    -0.06180
C231        C  0.20689220  0.50753353  0.70729770    -0.00250
C232        C  0.21003010  0.03451096  0.67200414    -0.08710
C233        C  0.23535959  0.07333234  0.66923007     0.61660
H234        H  0.18829630  0.04720318  0.60953137     0.12360
H235        H  0.17689542  0.45379056  0.73125474     0.12370
C236        C  0.12325801  0.43291676  0.66975983     0.61900
F237        F  0.20904903  0.60688928  0.65846371    -0.23270
F238        F  0.26557021  0.56790997  0.63840276    -0.20600
F239        F  0.25466472  0.08337100  0.70586795    -0.20270
F240        F  0.12272577  0.41279275  0.70805046    -0.20330
F241        F  0.13430188  0.90376871  0.63944913    -0.20650
F242        F  0.08313288  0.94893385  0.66208371    -0.23320
C243        C  0.20939069  0.97678224  0.81517923    -0.06160
C244        C  0.20139041  0.51008422  0.78734561    -0.00230
C245        C  0.16603930  0.53753035  0.79516270    -0.08810
C246        C  0.14298927  0.53247332  0.83238581    -0.06180
C247        C  0.15240489  0.50021671  0.86077631    -0.00250
C248        C  0.18632928  0.97184738  0.85222684    -0.08710
C249        C  0.19910763  0.93714373  0.88235301     0.61660
H250        H  0.23352671  0.95370975  0.80717527     0.12360
H251        H  0.11616255  0.55308173  0.83906664     0.12370
C252        C  0.15021604  0.57040999  0.76403441     0.61900
F253        F  0.23656357  0.41721575  0.87066278    -0.23270
F254        F  0.16857451  0.40781082  0.88325018    -0.20600
F255        F  0.20435828  0.95327234  0.92215230    -0.20270
F256        F  0.13188952  0.55140881  0.73023049    -0.20330
F257        F  0.18235623  0.09413017  0.74998495    -0.20650
F258        F  0.12027364  0.59740584  0.78174847    -0.23320
C259        C  0.32950675  0.53509783  0.70926771    -0.06160
C260        C  0.30029681  0.50414483  0.71511312    -0.00230
C261        C  0.30120076  0.46946122  0.68732516    -0.08810
C262        C  0.32697748  0.47048990  0.65156488    -0.06180
C263        C  0.35370268  0.50331297  0.64403054    -0.00250
C264        C  0.35639523  0.03537031  0.67439211    -0.08710
C265        C  0.38748259  0.06973140  0.67086657     0.61660
H266        H  0.33018088  0.06014142  0.73195971     0.12360
H267        H  0.32647574  0.44490177  0.62940494     0.12370
C268        C  0.27811906  0.42966108  0.69418238     0.61900
F269        F  0.39013285  0.59170559  0.70793798    -0.23270
F270        F  0.37479683  0.59732803  0.63969638    -0.20600
F271        F  0.42711546  0.05310086  0.66189629    -0.20270
F272        F  0.25664309  0.42882636  0.73165604    -0.20330
F273        F  0.30685228  0.89630531  0.69405711    -0.20650
F274        F  0.25010227  0.92443844  0.66175806    -0.23320
C275        C  0.31476935  0.47029229  0.80468669    -0.06160
C276        C  0.29450876  0.50835124  0.79392846    -0.00230
C277        C  0.30039267  0.04338705  0.82038473    -0.08810
C278        C  0.32670653  0.03889062  0.85538151    -0.06180
C279        C  0.34625859  0.50076382  0.86645466    -0.00250
C280        C  0.33933747  0.46524660  0.84105181    -0.08710
C281        C  0.35764720  0.42212440  0.85132444     0.61660
H282        H  0.31090442  0.44402199  0.78409756     0.12360
H283        H  0.33169081  0.06604018  0.87469005     0.12370
C284        C  0.28161221  0.08671817  0.81383330     0.61900
F285        F  0.34721450  0.39279969  0.82166101    -0.23270
F286        F  0.34216597  0.90919703  0.88947611    -0.20600
F287        F  0.40091835  0.42285262  0.85278528    -0.20270
F288        F  0.25362702  0.08897105  0.78167815    -0.20330
F289        F  0.31326991  0.61368713  0.80548016    -0.20650
F290        F  0.26070386  0.09982820  0.84982484    -0.23320
C291        C  0.53652137  0.18491928  0.69862790    -0.06160
C292        C  0.49822801  0.20304177  0.71219341    -0.00230
C293        C  0.46078137  0.19218005  0.69114593    -0.08810
C294        C  0.46411016  0.16606373  0.65578847    -0.06180
C295        C  0.50270748  0.14862876  0.64164444    -0.00250
C296        C  0.53958453  0.15685824  0.66478571    -0.08710
C297        C  0.58189670  0.13520160  0.65570575     0.61660
H298        H  0.56437967  0.19222128  0.71553998     0.12360
H299        H  0.43564402  0.15877601  0.63931343     0.12370
C300        C  0.41630706  0.20520889  0.70465914     0.61900
F301        F  0.11147180  0.14391979  0.68586116    -0.23270
F302        F  0.09712961  0.14819729  0.61752951    -0.20600
F303        F  0.57775867  0.09252536  0.65532851    -0.20270
F304        F  0.89504256  0.22319880  0.67130722    -0.20330
F305        F  0.41456075  0.23280544  0.73793277    -0.20650
F306        F  0.39513312  0.17046019  0.71621891    -0.23320
C307        C  0.03214930  0.17368464  0.85580781    -0.06160
C308        C  0.49730600  0.14948002  0.86340230    -0.00230
C309        C  0.46446135  0.14972902  0.83364528    -0.08810
C310        C  0.46747910  0.17522856  0.79819260    -0.06090
C311        C  0.50135284  0.20107732  0.79089563    -0.00250
C312        C  0.03532836  0.19914375  0.82006459    -0.08710
C313        C  0.07564971  0.22188407  0.81391144     0.61660
H314        H  0.05734678  0.17231116  0.87846628     0.12360
H315        H  0.44241874  0.17530261  0.77603123     0.12370
C316        C  0.42652027  0.12281619  0.83825908     0.61900
F317        F  0.10227814  0.21752389  0.84796285    -0.23270
F318        F  0.06724972  0.26376183  0.80873096    -0.20600
F319        F  0.09687840  0.20580437  0.77955418    -0.20270
F320        F  0.40230915  0.13658990  0.87187414    -0.20330
F321        F  0.43947951  0.08173241  0.84428931    -0.20650
F322        F  0.40130021  0.12429219  0.80301212    -0.23320
C323        C  0.03867231  0.33251737  0.65671694    -0.06160
C324        C  0.50252188  0.33848084  0.63212881    -0.00230
C325        C  0.46571781  0.31767481  0.64363184    -0.08810
C326        C  0.46555622  0.29530680  0.68138022    -0.06180
C327        C  0.50033609  0.29217865  0.70816691    -0.00250
C328        C  0.03834626  0.30982073  0.69459205    -0.08710
C329        C  0.07803743  0.30650552  0.72035395     0.61660
H330        H  0.06681455  0.34764309  0.64709609     0.12360
H331        H  0.43655059  0.28339333  0.69198173     0.12370
C332        C  0.42600639  0.31946934  0.61716939     0.61900
F333        F  0.11137448  0.32474226  0.70070153    -0.23270
F334        F  0.08915525  0.26521649  0.72635975    -0.20600
F335        F  0.57175858  0.32612589  0.75844722    -0.20270
F336        F  0.93575478  0.31016248  0.57580313    -0.20330
F337        F  0.40658750  0.35856111  0.62004465    -0.20650
F338        F  0.39730170  0.29119819  0.63026747    -0.23320
C339        C  0.47978832  0.28313199  0.82948230    -0.06160
C340        C  0.48593646  0.29999397  0.78910360    -0.00230
C341        C  0.98481047  0.34467678  0.78737906    -0.08810
C342        C  0.99413131  0.36718972  0.82388913    -0.06180
C343        C  0.49595852  0.34807895  0.86301976    -0.00250
C344        C  0.48652845  0.30586684  0.86637518    -0.08710
C345        C  0.48397111  0.28501997  0.90893027     0.61660
H346        H  0.46777236  0.25281365  0.83306733     0.12360
H347        H  0.99618348  0.40073693  0.82254577     0.12370
C348        C  0.96198276  0.36945616  0.75317972     0.61900
F349        F  0.47709491  0.24293036  0.90550564    -0.23270
F350        F  0.45146916  0.30323802  0.93204918    -0.20600
F351        F  0.02131761  0.28954388  0.93022818    -0.20270
F352        F  0.42878144  0.34770093  0.73806292    -0.20330
F353        F  0.98902706  0.37912529  0.72125204    -0.20650
F354        F  0.94480693  0.40667156  0.76860457    -0.23320
N355        N  0.40990605  0.52128774  0.45508512    -0.06500
N356        N  0.38698457  0.53543202  0.42337761    -0.58620
N357        N  0.41304744  0.98037784  0.05213456    -0.06180
N358        N  0.39228674  0.96685797  0.08496931    -0.60750
N359        N  0.41223598  0.52124668  0.05175635    -0.05780
N360        N  0.39108925  0.53635512  0.08424916    -0.58590
N361        N  0.41063171  0.98045976  0.45555307    -0.05450
N362        N  0.38838258  0.96607596  0.42433981    -0.61100
C363        C  0.37375095  0.00054091  0.40426862     0.95680
C364        C  0.37901980  0.50220992  0.10493743     0.95460
N365        N  0.02471709  0.90665799  0.04752055    -0.06680
N366        N  0.03904331  0.88104878  0.07714104    -0.59200
N367        N  0.48067728  0.91056836  0.45267419    -0.04800
N368        N  0.46470180  0.88948710  0.42149601    -0.60450
N369        N  0.02191259  0.90902058  0.45073129    -0.06710
N370        N  0.03490063  0.88666820  0.41801911    -0.59460
N371        N  0.48353257  0.90930015  0.04857396    -0.04450
N372        N  0.46917262  0.88588716  0.07861757    -0.60540
Mn373      Mn  0.44610240  0.94433843  0.00246081     1.18440
C374        C  0.00374202  0.86799505  0.09615760     0.97760
C375        C  0.49875290  0.87475390  0.40029512     0.98420
N376        N  0.48060943  0.58822187  0.05112974    -0.06730
N377        N  0.46686899  0.60993954  0.08392680    -0.63040
N378        N  0.01987792  0.58802913  0.45342331    -0.05540
N379        N  0.03341253  0.60929080  0.42108432    -0.63720
N380        N  0.47867256  0.58898168  0.45421139    -0.06240
N381        N  0.46339257  0.61096627  0.42249937    -0.63310
N382        N  0.02179190  0.58686149  0.05016310    -0.05140
N383        N  0.03677017  0.60770720  0.08207903    -0.64000
Mn384      Mn  0.44425543  0.55606315  0.50295221     1.10660
C385        C  0.00232097  0.62190807  0.10321277     0.98980
C386        C  0.49781276  0.62332096  0.40184577     0.99060
N387        N  0.09132383  0.97680616  0.45025088    -0.06250
N388        N  0.11384396  0.96315886  0.41788203    -0.61620
N389        N  0.09217359  0.51580124  0.04739891    -0.05570
N390        N  0.11468258  0.52946250  0.07875541    -0.58350
N391        N  0.09310802  0.97486566  0.04697231    -0.06880
N392        N  0.11615409  0.95989246  0.07824530    -0.61190
N393        N  0.09015235  0.51770136  0.45126219    -0.05860
N394        N  0.11160208  0.53267649  0.41973131    -0.58370
Mn395      Mn  0.05905696  0.94062989  0.99875961     1.20190
Mn396      Mn  0.05698311  0.55307460  0.50062130     1.10090
Cl397      Cl  0.00168530  0.49848177  0.00121660    -0.86340
C398        C  0.12647890  0.99839499  0.39927378     0.95990
C399        C  0.12926960  0.49434977  0.09789726     0.95790
C400        C  0.49490703  0.77158763  0.25059349     0.00180
C401        C  0.49890227  0.72813159  0.25194009     0.00180
C402        C  0.27196030  0.00940605  0.25237674     0.00180
C403        C  0.22876962  0.01248218  0.24880623     0.00180
C404        C  0.18592893  0.52671835  0.13633218    -0.06160
C405        C  0.15737823  0.99488882  0.13474427    -0.00230
C406        C  0.15409896  0.96775004  0.16928223    -0.08810
C407        C  0.17923041  0.97441499  0.20465856    -0.06180
C408        C  0.20689946  0.00755754  0.20730164    -0.00250
C409        C  0.21000543  0.53452837  0.17200414    -0.08710
C410        C  0.23532906  0.57335400  0.16923525     0.61660
H411        H  0.18827129  0.54722385  0.10953223     0.12360
H412        H  0.17690624  0.95381144  0.23125434     0.12370
C413        C  0.12327724  0.93293375  0.16975438     0.61900
F414        F  0.20904832  0.10691727  0.15847831    -0.23270
F415        F  0.26557255  0.06794543  0.13841150    -0.20600
F416        F  0.25463567  0.58338883  0.20587357    -0.20270
F417        F  0.12274114  0.91281347  0.20804661    -0.20330
F418        F  0.13431105  0.40377138  0.13943385    -0.20650
F419        F  0.08312798  0.44892228  0.16206593    -0.23320
C420        C  0.20937542  0.47679036  0.31517625    -0.06160
C421        C  0.20139684  0.01010354  0.28735064    -0.00230
C422        C  0.16604378  0.03754681  0.29516910    -0.08810
C423        C  0.14299636  0.03248844  0.33239374    -0.06180
C424        C  0.15241627  0.00023280  0.36078411    -0.00250
C425        C  0.18631701  0.47185287  0.35222532    -0.08710
C426        C  0.19909998  0.43714967  0.38235022     0.61660
H427        H  0.23351292  0.45372004  0.30717077     0.12360
H428        H  0.11616860  0.05309497  0.33907613     0.12370
C429        C  0.15021654  0.07042516  0.26404130     0.61900
F430        F  0.23658152  0.91723817  0.37066720    -0.23270
F431        F  0.16859409  0.90782803  0.38325841    -0.20600
F432        F  0.20435231  0.45327822  0.42214928    -0.20270
F433        F  0.13189281  0.05142226  0.23023681    -0.20330
F434        F  0.18232490  0.59414077  0.24998879    -0.20650
F435        F  0.12027054  0.09741695  0.28175549    -0.23320
C436        C  0.32950897  0.03511760  0.20926660    -0.06160
C437        C  0.30030120  0.00416406  0.21511710    -0.00230
C438        C  0.30120672  0.96947622  0.18733414    -0.08810
C439        C  0.32698404  0.97050041  0.15157384    -0.06180
C440        C  0.35370795  0.00332343  0.14403499    -0.00250
C441        C  0.35636448  0.53537897  0.17437486    -0.08710
C442        C  0.38744654  0.56974328  0.17084188     0.61660
H443        H  0.33014990  0.56015686  0.23193997     0.12360
H444        H  0.32648411  0.94490885  0.12941781     0.12370
C445        C  0.27812673  0.92967603  0.19419709     0.61900
F446        F  0.39013492  0.09172219  0.20793158    -0.23270
F447        F  0.37479452  0.09734151  0.13969030    -0.20600
F448        F  0.42708131  0.55311758  0.16187184    -0.20270
F449        F  0.25664814  0.92884686  0.23166939    -0.20330
F450        F  0.30683662  0.39631237  0.19406854    -0.20650
F451        F  0.25008564  0.42443357  0.16176126    -0.23320
C452        C  0.31477883  0.97031891  0.30469148    -0.06160
C453        C  0.29451638  0.00837665  0.29393292    -0.00230
C454        C  0.30037620  0.54340015  0.32037670    -0.08810
C455        C  0.32669550  0.53890512  0.35536982    -0.06180
C456        C  0.34627033  0.00079323  0.36645740    -0.00250
C457        C  0.33934822  0.96527492  0.34105586    -0.08710
C458        C  0.35765817  0.92215289  0.35132889     0.61660
H459        H  0.31091373  0.94404779  0.28410348     0.12360
H460        H  0.33168200  0.56605495  0.37467728     0.12370
C461        C  0.28159078  0.58672979  0.31382877     0.61900
F462        F  0.34722801  0.89282798  0.32166460    -0.23270
F463        F  0.34215356  0.40921028  0.38946414    -0.20600
F464        F  0.40092894  0.92288231  0.35279196    -0.20270
F465        F  0.25359255  0.58897830  0.28168491    -0.20330
F466        F  0.31327454  0.11371172  0.30546873    -0.20650
F467        F  0.26069542  0.59984155  0.34982711    -0.23320
C468        C  0.53651170  0.68496260  0.19857106    -0.06160
C469        C  0.49821294  0.70304181  0.21217283    -0.00230
C470        C  0.46076081  0.69215552  0.19114839    -0.08810
C471        C  0.46408634  0.66603504  0.15579292    -0.06180
C472        C  0.50268750  0.64862674  0.14162575    -0.00250
C473        C  0.53957303  0.65689160  0.16473841    -0.08710
C474        C  0.58189469  0.63526098  0.15564161     0.61660
H475        H  0.56437818  0.69230892  0.21544525     0.12360
H476        H  0.43561637  0.65872605  0.13933582     0.12370
C477        C  0.41628733  0.70517804  0.20467546     0.61900
F478        F  0.11148104  0.64399550  0.18578822    -0.23270
F479        F  0.09710340  0.64824822  0.11746223    -0.20600
F480        F  0.57778675  0.59258055  0.15528212    -0.20270
F481        F  0.89500586  0.72314333  0.17131879    -0.20330
F482        F  0.41454834  0.73280549  0.23792382    -0.20650
F483        F  0.39513213  0.67043235  0.21627726    -0.23320
C484        C  0.03217789  0.67361397  0.35576193    -0.06160
C485        C  0.49731768  0.64943658  0.36337638    -0.00230
C486        C  0.46444785  0.64972296  0.33364520    -0.08810
C487        C  0.46746303  0.67522657  0.29819674    -0.06090
C488        C  0.50135766  0.70103791  0.29087065    -0.00250
C489        C  0.03535496  0.69907456  0.32001997    -0.08710
C490        C  0.07568438  0.72179855  0.31385520     0.61660
H491        H  0.05739084  0.67221823  0.37840507     0.12360
H492        H  0.44236783  0.67533935  0.27605546     0.12370
C493        C  0.42648169  0.62284816  0.33828383     0.61900
F494        F  0.10233314  0.71740601  0.34788750    -0.23270
F495        F  0.06729852  0.76368256  0.30870621    -0.20600
F496        F  0.09688571  0.70573157  0.27947629    -0.20270
F497        F  0.40230420  0.63664386  0.37191400    -0.20330
F498        F  0.43940462  0.58175300  0.34430449    -0.20650
F499        F  0.40124003  0.62434954  0.30305275    -0.23320
C500        C  0.03869283  0.83259038  0.15678683    -0.06160
C501        C  0.50257176  0.83850853  0.13216103    -0.00230
C502        C  0.46579663  0.81762548  0.14359910    -0.08810
C503        C  0.46561873  0.79524997  0.18134268    -0.06180
C504        C  0.50036077  0.79218026  0.20818492    -0.00250
C505        C  0.03835747  0.80987795  0.19465314    -0.08710
C506        C  0.07803239  0.80657932  0.22044056     0.61660
H507        H  0.06682137  0.84776027  0.14720199     0.12360
H508        H  0.43662467  0.78327602  0.19188763     0.12370
C509        C  0.42613180  0.81934276  0.11706675     0.61900
F510        F  0.11136453  0.82486043  0.20082542    -0.23270
F511        F  0.08918318  0.76529284  0.22641768    -0.20600
F512        F  0.57169592  0.82617654  0.25856952    -0.20270
F513        F  0.93593549  0.81010443  0.07572715    -0.20330
F514        F  0.40661288  0.85838859  0.11994058    -0.20650
F515        F  0.39748034  0.79098655  0.13008877    -0.23320
C516        C  0.47993369  0.78311316  0.32952985    -0.06160
C517        C  0.48594639  0.79996791  0.28912447    -0.00230
C518        C  0.98471262  0.84465477  0.28737390    -0.08810
C519        C  0.99402439  0.86721303  0.32385882    -0.06180
C520        C  0.49597418  0.84813258  0.36299008    -0.00250
C521        C  0.48668577  0.80588989  0.36639244    -0.08710
C522        C  0.48427182  0.78506038  0.40896807     0.61660
H523        H  0.46800262  0.75276961  0.33317305     0.12360
H524        H  0.99598496  0.90076819  0.32249408     0.12370
C525        C  0.96179980  0.86936228  0.25317951     0.61900
F526        F  0.47749382  0.74294799  0.40558933    -0.23270
F527        F  0.45177699  0.80321541  0.43214427    -0.20600
F528        F  0.02158529  0.78966080  0.43019233    -0.20270
F529        F  0.42862566  0.84745805  0.23808542    -0.20330
F530        F  0.98880150  0.87910300  0.22123907    -0.20650
F531        F  0.94452340  0.90653426  0.26860542    -0.23320
N532        N  0.40990867  0.52127541  0.95508139    -0.06500
N533        N  0.38698739  0.53541933  0.92337412    -0.58620
N534        N  0.41304973  0.98037680  0.55212020    -0.06180
N535        N  0.39229793  0.96684936  0.58495711    -0.60750
N536        N  0.41223481  0.52125487  0.55176001    -0.05780
N537        N  0.39108783  0.53636375  0.58425213    -0.58590
N538        N  0.41062900  0.98043906  0.95556787    -0.05450
N539        N  0.38837983  0.96604935  0.92435712    -0.61100
C540        C  0.37374714  0.00051113  0.90428039     0.95680
C541        C  0.37901563  0.50221922  0.60493930     0.95460
N542        N  0.02469234  0.90665429  0.54749795    -0.06680
N543        N  0.03900801  0.88103433  0.57711401    -0.59200
N544        N  0.48067509  0.91054031  0.95270663    -0.04800
N545        N  0.46469760  0.88943789  0.92154421    -0.60450
N546        N  0.02191912  0.90898665  0.95075336    -0.06710
N547        N  0.03490253  0.88661649  0.91805101    -0.59460
N548        N  0.48352224  0.90929092  0.54854185    -0.04450
N549        N  0.46915408  0.88587207  0.57857632    -0.60540
Mn550      Mn  0.44610157  0.94434801  0.50243686     1.18440
C551        C  0.00370053  0.86797510  0.59611635     0.97760
C552        C  0.49874680  0.87469819  0.90034407     0.98420
N553        N  0.48061308  0.58822847  0.55113889    -0.06730
N554        N  0.46687433  0.60994967  0.58393470    -0.63040
N555        N  0.01986781  0.58804094  0.95341962    -0.05540
N556        N  0.03340152  0.60931595  0.92108887    -0.63720
N557        N  0.47866807  0.58897852  0.95420334    -0.06240
N558        N  0.46338609  0.61097368  0.92249900    -0.63310
N559        N  0.02180375  0.58685735  0.55016853    -0.05140
N560        N  0.03678367  0.60770570  0.58208258    -0.64000
Mn561      Mn  0.44425435  0.55605490  0.00294563     1.10660
C562        C  0.00233536  0.62191110  0.60321557     0.98980
C563        C  0.49780524  0.62333889  0.90185011     0.99060
N564        N  0.09132357  0.97678986  0.95024033    -0.06250
N565        N  0.11384519  0.96313927  0.91787366    -0.61620
N566        N  0.09218039  0.51579194  0.54740092    -0.05570
N567        N  0.11468979  0.52945307  0.57875675    -0.58350
N568        N  0.09309031  0.97486255  0.54698294    -0.06880
N569        N  0.11613478  0.95988182  0.57825374    -0.61190
N570        N  0.09014533  0.51771004  0.95125969    -0.05860
N571        N  0.11159636  0.53268455  0.91972952    -0.58370
Mn572      Mn  0.05904502  0.94063995  0.49875570     1.20190
Mn573      Mn  0.05697435  0.55308309  0.00061742     1.10090
Cl574      Cl  0.00169161  0.49847584  0.50122027    -0.86340
C575        C  0.12647843  0.99837356  0.89926013     0.95990
C576        C  0.12927715  0.49434039  0.59789794     0.95790
C577        C  0.49490788  0.77161016  0.75058770     0.00180
C578        C  0.49890866  0.72815417  0.75194506     0.00180
C579        C  0.27197824  0.00937063  0.75237533     0.00180
C580        C  0.22878731  0.01244602  0.74880161     0.00180
C581        C  0.18592809  0.52671751  0.63633581    -0.06160
C582        C  0.15737170  0.99486393  0.63475171    -0.00230
C583        C  0.15408335  0.96773395  0.66929543    -0.08810
C584        C  0.17922791  0.97438999  0.70466450    -0.06180
C585        C  0.20691386  0.00752042  0.70729782    -0.00250
C586        C  0.21000073  0.53453111  0.67200907    -0.08710
C587        C  0.23531398  0.57336386  0.66924452     0.61660
H588        H  0.18826658  0.54722588  0.60953764     0.12360
H589        H  0.17689840  0.95379097  0.73126325     0.12370
C590        C  0.12323591  0.93293980  0.66978156     0.61900
F591        F  0.20910941  0.10686432  0.65843536    -0.23270
F592        F  0.26561807  0.06785648  0.63839358    -0.20600
F593        F  0.25462027  0.58339791  0.70588320    -0.20270
F594        F  0.12269611  0.91282311  0.70807602    -0.20330
F595        F  0.13434464  0.40375659  0.63942348    -0.20650
F596        F  0.08314736  0.44888925  0.66206020    -0.23320
C597        C  0.20937207  0.47679414  0.81517915    -0.06160
C598        C  0.20141357  0.01007345  0.78734596    -0.00230
C599        C  0.16606499  0.03752276  0.79516196    -0.08810
C600        C  0.14301125  0.03246640  0.83238303    -0.06180
C601        C  0.15242170  0.00020806  0.86077338    -0.00250
C602        C  0.18631379  0.47185839  0.85222837    -0.08710
C603        C  0.19909697  0.43715676  0.88235501     0.61660
H604        H  0.23350943  0.45372336  0.80717455     0.12360
H605        H  0.11618536  0.05307664  0.83906173     0.12370
C606        C  0.15024594  0.07040296  0.76403249     0.61900
F607        F  0.23657336  0.91720000  0.87066247    -0.23270
F608        F  0.16858251  0.90780039  0.88324508    -0.20600
F609        F  0.20434865  0.45328726  0.92215336    -0.20270
F610        F  0.13190579  0.05140291  0.73023555    -0.20330
F611        F  0.18232142  0.59414989  0.74999849    -0.20650
F612        F  0.12031625  0.09741044  0.78174998    -0.23320
C613        C  0.32955089  0.03507297  0.70928709    -0.06160
C614        C  0.30032623  0.00413032  0.71512027    -0.00230
C615        C  0.30122070  0.96945376  0.68732362    -0.08810
C616        C  0.32699729  0.97048487  0.65156355    -0.06180
C617        C  0.35373574  0.00329965  0.64404097    -0.00250
C618        C  0.35634625  0.53539732  0.67436916    -0.08710
C619        C  0.38741060  0.56977690  0.67082718     0.61660
H620        H  0.33012837  0.56017207  0.73193437     0.12360
H621        H  0.32648555  0.94490481  0.62939481     0.12370
C622        C  0.27812934  0.92965789  0.69417190     0.61900
F623        F  0.39022278  0.09164026  0.70798850    -0.23270
F624        F  0.37488449  0.09730493  0.63975003    -0.20600
F625        F  0.42705425  0.55316743  0.66186849    -0.20270
F626        F  0.25666123  0.92881667  0.73164994    -0.20330
F627        F  0.30685084  0.39631593  0.69408386    -0.20650
F628        F  0.25010001  0.42442354  0.66176505    -0.23320
C629        C  0.31478634  0.97028322  0.80469828    -0.06160
C630        C  0.29452795  0.00834162  0.79393459    -0.00230
C631        C  0.30037782  0.54339505  0.82037957    -0.08810
C632        C  0.32669851  0.53889660  0.85537100    -0.06180
C633        C  0.34626738  0.00075933  0.86646882    -0.00250
C634        C  0.33934993  0.96524034  0.84106700    -0.08710
C635        C  0.35765880  0.92211917  0.85134473     0.61660
H636        H  0.31092311  0.94401142  0.78411024     0.12360
H637        H  0.33168706  0.56604521  0.87467955     0.12370
C638        C  0.28159542  0.58672635  0.81383407     0.61900
F639        F  0.34722887  0.89279193  0.82168279    -0.23270
F640        F  0.34215761  0.40919901  0.88945599    -0.20600
F641        F  0.40092971  0.92284784  0.85280920    -0.20270
F642        F  0.25359120  0.58897694  0.78169538    -0.20330
F643        F  0.31329018  0.11368117  0.80550033    -0.20650
F644        F  0.26070752  0.59984080  0.84983573    -0.23320
C645        C  0.53651686  0.68494075  0.69860513    -0.06160
C646        C  0.49822363  0.70305301  0.71218324    -0.00230
C647        C  0.46077415  0.69218669  0.69114320    -0.08810
C648        C  0.46409860  0.66606697  0.65578674    -0.06180
C649        C  0.50269555  0.64863684  0.64163411    -0.00250
C650        C  0.53957665  0.65687651  0.66476525    -0.08710
C651        C  0.58189089  0.63522693  0.65567801     0.61660
H652        H  0.56437863  0.69225397  0.71550524     0.12360
H653        H  0.43562999  0.65877353  0.63931890     0.12370
C654        C  0.41630205  0.70522024  0.70466120     0.61900
F655        F  0.11147528  0.64392170  0.68584218    -0.23270
F656        F  0.09712710  0.64819807  0.61751182    -0.20600
F657        F  0.57776161  0.59254947  0.65530843    -0.20270
F658        F  0.89505548  0.72322335  0.67129383    -0.20330
F659        F  0.41456185  0.73282546  0.73792772    -0.20650
F660        F  0.39512861  0.67047690  0.71623492    -0.23320
C661        C  0.03214532  0.67369125  0.85580503    -0.06160
C662        C  0.49730763  0.64946788  0.86338902    -0.00230
C663        C  0.46445436  0.64973383  0.83364040    -0.08810
C664        C  0.46747262  0.67523688  0.79819029    -0.06090
C665        C  0.50135499  0.70107175  0.79088502    -0.00250
C666        C  0.03532802  0.69914846  0.82006017    -0.08710
C667        C  0.07565063  0.72188701  0.81390768     0.61660
H668        H  0.05733991  0.67231974  0.87846620     0.12360
H669        H  0.44240101  0.67532705  0.77603607     0.12370
C670        C  0.42650281  0.62283632  0.83826099     0.61900
F671        F  0.10227800  0.71752592  0.84795979    -0.23270
F672        F  0.06725303  0.76376508  0.80872575    -0.20600
F673        F  0.09687916  0.70580591  0.77955085    -0.20270
F674        F  0.40230493  0.63661624  0.87188296    -0.20330
F675        F  0.43944697  0.58174732  0.84428408    -0.20650
F676        F  0.40127445  0.62432585  0.80302017    -0.23320
C677        C  0.03867146  0.83251123  0.65669939    -0.06160
C678        C  0.50253838  0.83849778  0.63213557    -0.00230
C679        C  0.46573942  0.81767742  0.64362595    -0.08810
C680        C  0.46557307  0.79530887  0.68137427    -0.06180
C681        C  0.50034426  0.79219166  0.70817391    -0.00250
C682        C  0.03834836  0.80981619  0.69457595    -0.08710
C683        C  0.07804384  0.80649537  0.72033130     0.61660
H684        H  0.06681718  0.84762567  0.64706973     0.12360
H685        H  0.43656957  0.78338358  0.69196255     0.12370
C686        C  0.42603807  0.81945572  0.61714816     0.61900
F687        F  0.11138057  0.82472700  0.70067289    -0.23270
F688        F  0.08915639  0.76520522  0.72633787    -0.20600
F689        F  0.57174458  0.82614534  0.75848088    -0.20270
F690        F  0.93570909  0.81018986  0.57582459    -0.20330
F691        F  0.40660178  0.85853992  0.62001743    -0.20650
F692        F  0.39734114  0.79117169  0.63023382    -0.23320
C693        C  0.47983657  0.78313101  0.82950027    -0.06160
C694        C  0.48594551  0.79999419  0.78911488    -0.00230
C695        C  0.98483970  0.84468055  0.78738717    -0.08810
C696        C  0.99416237  0.86718229  0.82390442    -0.06180
C697        C  0.49596511  0.84809690  0.86302308    -0.00250
C698        C  0.48657787  0.80587506  0.86638713    -0.08710
C699        C  0.48406168  0.78502908  0.90894610     0.61660
H700        H  0.46784545  0.75280508  0.83309960     0.12360
H701        H  0.99623084  0.90072815  0.82256807     0.12370
C702        C  0.96202698  0.86947627  0.75318954     0.61900
F703        F  0.47721596  0.74293277  0.90553057    -0.23270
F704        F  0.45156029  0.80322540  0.93208216    -0.20600
F705        F  0.02128324  0.78951037  0.93023714    -0.20270
F706        F  0.42874166  0.84764787  0.73808074    -0.20330
F707        F  0.98907729  0.87913156  0.72126247    -0.20650
F708        F  0.94487345  0.90670024  0.76861656    -0.23320
N709        N  0.90991797  0.02130765  0.45508358    -0.06500
N710        N  0.88699824  0.03545488  0.42337610    -0.58620
N711        N  0.91302966  0.48037613  0.05211742    -0.06180
N712        N  0.89227256  0.46685275  0.08495288    -0.60750
N713        N  0.91225280  0.02125494  0.05176386    -0.05780
N714        N  0.89110005  0.03636758  0.08425045    -0.58590
N715        N  0.91062160  0.48044441  0.45555274    -0.05450
N716        N  0.88837234  0.46605823  0.42434048    -0.61100
C717        C  0.87374118  0.50052188  0.40426633     0.95680
C718        C  0.87902719  0.00222560  0.10494125     0.95460
N719        N  0.52469600  0.40664827  0.04750704    -0.06680
N720        N  0.53901770  0.38103345  0.07712455    -0.59200
N721        N  0.98066390  0.41054059  0.45269082    -0.04800
N722        N  0.96468848  0.38943512  0.42152968    -0.60450
N723        N  0.52190058  0.40899733  0.45074141    -0.06710
N724        N  0.53488718  0.38663219  0.41803742    -0.59460
N725        N  0.98350813  0.40929334  0.04855041    -0.04450
N726        N  0.96914264  0.38587217  0.07858403    -0.60540
Mn727      Mn  0.94608516  0.44434054  0.00244145     1.18440
C728        C  0.50371366  0.36797617  0.09613395     0.97760
C729        C  0.99873949  0.37468975  0.40033627     0.98420
N730        N  0.98062908  0.08822997  0.05113523    -0.06730
N731        N  0.96689100  0.10994898  0.08393268    -0.63040
N732        N  0.51988771  0.08804615  0.45343281    -0.05540
N733        N  0.53342104  0.10931577  0.42109833    -0.63720
N734        N  0.97868483  0.08900193  0.45421873    -0.06240
N735        N  0.96340484  0.11099422  0.42251173    -0.63310
N736        N  0.52180744  0.08686648  0.05016719    -0.05140
N737        N  0.53678728  0.10771378  0.08208172    -0.64000
Mn738      Mn  0.94426613  0.05607688  0.50295509     1.10660
C739        C  0.50233899  0.12191439  0.10321753     0.98980
C740        C  0.99782516  0.12335556  0.40186276     0.99060
N741        N  0.59131097  0.47678944  0.45024533    -0.06250
N742        N  0.61383145  0.46314118  0.41787682    -0.61620
N743        N  0.59219136  0.01580863  0.04739773    -0.05570
N744        N  0.61470061  0.02947323  0.07875217    -0.58350
N745        N  0.59308780  0.47485803  0.04697219    -0.06880
N746        N  0.61613264  0.45988295  0.07824525    -0.61190
N747        N  0.59016490  0.01771705  0.45126772    -0.05860
N748        N  0.61161421  0.03269462  0.41973793    -0.58370
Mn749      Mn  0.55904082  0.44062523  0.99875388     1.20190
Mn750      Mn  0.55699461  0.05308549  0.50062816     1.10090
Cl751      Cl  0.50170004  0.99848235  0.00122588    -0.86340
C752        C  0.62646597  0.49837684  0.39926673     0.95990
C753        C  0.62929136  0.99436256  0.09789481     0.95790
C754        C  0.99491734  0.27160465  0.25058371     0.00180
C755        C  0.99892603  0.22814960  0.25194437     0.00180
C756        C  0.77195445  0.50938530  0.25237136     0.00180
C757        C  0.72876333  0.51246149  0.24880107     0.00180
C758        C  0.68593625  0.02674642  0.13633651    -0.06160
C759        C  0.65735950  0.49487505  0.13474473    -0.00230
C760        C  0.65407661  0.46773966  0.16928502    -0.08810
C761        C  0.67921383  0.47440053  0.20465826    -0.06180
C762        C  0.70689039  0.50753767  0.20729728    -0.00250
C763        C  0.71000771  0.03456045  0.17201059    -0.08710
C764        C  0.73531822  0.07339502  0.16924795     0.61660
H765        H  0.68827328  0.04725615  0.10953925     0.12360
H766        H  0.67688766  0.45379852  0.23125504     0.12370
C767        C  0.62324405  0.43293258  0.16976295     0.61900
F768        F  0.70905923  0.60689154  0.15845893    -0.23270
F769        F  0.76557604  0.56790414  0.13840115    -0.20600
F770        F  0.75462580  0.08342718  0.20588645    -0.20270
F771        F  0.62270647  0.41281322  0.20805587    -0.20330
F772        F  0.63436948  0.90377713  0.13942329    -0.20650
F773        F  0.58316399  0.94890549  0.16205111    -0.23320
C774        C  0.70938663  0.97681722  0.31517973    -0.06160
C775        C  0.70139093  0.51008512  0.28734636    -0.00230
C776        C  0.66603959  0.53753066  0.29516486    -0.08810
C777        C  0.64298967  0.53247197  0.33238814    -0.06180
C778        C  0.65240564  0.50021434  0.36077771    -0.00250
C779        C  0.68633070  0.97187819  0.35222982    -0.08710
C780        C  0.69911934  0.93717776  0.38235581     0.61660
H781        H  0.73352599  0.95374905  0.30717407     0.12360
H782        H  0.61616269  0.55307983  0.33906967     0.12370
C783        C  0.65021526  0.57041078  0.26403739     0.61900
F784        F  0.73656544  0.41721413  0.37066062    -0.23270
F785        F  0.66857656  0.40780838  0.38324829    -0.20600
F786        F  0.70437067  0.95330877  0.42215401    -0.20270
F787        F  0.63188324  0.55141021  0.23023617    -0.20330
F788        F  0.68232120  0.09417195  0.25000280    -0.20650
F789        F  0.62027712  0.59740924  0.28175452    -0.23320
C790        C  0.82951263  0.53509311  0.20926854    -0.06160
C791        C  0.80029721  0.50414467  0.21511215    -0.00230
C792        C  0.80119624  0.46946278  0.18732183    -0.08810
C793        C  0.82697122  0.47049103  0.15155998    -0.06180
C794        C  0.85370155  0.50331035  0.14402773    -0.00250
C795        C  0.85635251  0.03541471  0.17436307    -0.08710
C796        C  0.88741648  0.06979373  0.17081670     0.61660
H797        H  0.83013205  0.06019948  0.23192290     0.12360
H798        H  0.82646474  0.44490522  0.12939764     0.12370
C799        C  0.77811172  0.42966434  0.19417869     0.61900
F800        F  0.89016155  0.59167760  0.20794915    -0.23270
F801        F  0.87481721  0.59732218  0.13971044    -0.20600
F802        F  0.92706021  0.05318435  0.16185838    -0.20270
F803        F  0.75663987  0.42882902  0.23165472    -0.20330
F804        F  0.80686137  0.89633610  0.19410268    -0.20650
F805        F  0.75011121  0.92443498  0.16177548    -0.23320
C806        C  0.81477078  0.47029779  0.30468820    -0.06160
C807        C  0.79450925  0.50835571  0.29392834    -0.00230
C808        C  0.80038942  0.04342871  0.32037534    -0.08810
C809        C  0.82671256  0.03893302  0.35536543    -0.06180
C810        C  0.84625982  0.50077261  0.36645546    -0.00250
C811        C  0.83933884  0.46525410  0.34105384    -0.08710
C812        C  0.85764821  0.42213222  0.35132850     0.61660
H813        H  0.81090598  0.44402654  0.28410007     0.12360
H814        H  0.83170250  0.06608271  0.37467197     0.12370
C815        C  0.78160605  0.08675923  0.31382821     0.61900
F816        F  0.84721617  0.39280633  0.32166599    -0.23270
F817        F  0.84216892  0.90923354  0.38945332    -0.20600
F818        F  0.90091928  0.42286040  0.35279020    -0.20270
F819        F  0.75359233  0.08900499  0.28169760    -0.20330
F820        F  0.81326403  0.61369395  0.30547994    -0.20650
F821        F  0.76072804  0.09987949  0.34983350    -0.23320
C822        C  0.03653447  0.18493238  0.19860748    -0.06160
C823        C  0.99824159  0.20304636  0.21218436    -0.00230
C824        C  0.96079196  0.19218225  0.19114375    -0.08810
C825        C  0.96411603  0.16606480  0.15578568    -0.06180
C826        C  0.00271295  0.14863542  0.14163183    -0.00250
C827        C  0.03959415  0.15687206  0.16476425    -0.08710
C828        C  0.08190841  0.13522383  0.15567409     0.61660
H829        H  0.06439584  0.19224160  0.21551082     0.12360
H830        H  0.93564728  0.15877308  0.13931721     0.12370
C831        C  0.91632026  0.20521575  0.20466377     0.61900
F832        F  0.61148912  0.14395320  0.18582160    -0.23270
F833        F  0.59712586  0.14822530  0.11749407    -0.20600
F834        F  0.07777962  0.09254635  0.15530003    -0.20270
F835        F  0.39504504  0.22319162  0.17131364    -0.20330
F836        F  0.91458095  0.23281729  0.23793331    -0.20650
F837        F  0.89514608  0.17047297  0.21623560    -0.23320
C838        C  0.53216700  0.17367453  0.35580105    -0.06160
C839        C  0.99732858  0.14947717  0.36339716    -0.00230
C840        C  0.96448101  0.14972882  0.33364264    -0.08810
C841        C  0.96749827  0.17522716  0.29818895    -0.06090
C842        C  0.00137446  0.20107087  0.29088662    -0.00250
C843        C  0.53534621  0.19913065  0.32005552    -0.08710
C844        C  0.57566825  0.22186850  0.31389850     0.61660
H845        H  0.55736639  0.17230003  0.37845784     0.12360
H846        H  0.94243212  0.17530670  0.27603077     0.12370
C847        C  0.92653686  0.12282068  0.33826070     0.61900
F848        F  0.60230338  0.21750030  0.34794388    -0.23270
F849        F  0.56726956  0.26374770  0.30872698    -0.20600
F850        F  0.59688887  0.20579341  0.27953436    -0.20270
F851        F  0.90232757  0.13660090  0.37187449    -0.20330
F852        F  0.93949198  0.08173646  0.34429561    -0.20650
F853        F  0.90131613  0.12429480  0.30301406    -0.23320
C854        C  0.53868020  0.33253553  0.15673182    -0.06160
C855        C  0.00253310  0.33849393  0.13213496    -0.00230
C856        C  0.96573455  0.31767542  0.14362968    -0.08810
C857        C  0.96557348  0.29530481  0.18137634    -0.06180
C858        C  0.00034911  0.29218458  0.20816967    -0.00250
C859        C  0.53835382  0.30983553  0.19460517    -0.08710
C860        C  0.57804166  0.30652632  0.22037249     0.61660
H861        H  0.56681892  0.34767102  0.14711765     0.12360
H862        H  0.93657039  0.28338309  0.19197004     0.12370
C863        C  0.92602791  0.31945930  0.11715972     0.61900
F864        F  0.61137610  0.32477586  0.20072866    -0.23270
F865        F  0.58916975  0.26523842  0.22637122    -0.20600
F866        F  0.07175377  0.32614185  0.25846733    -0.20270
F867        F  0.43579109  0.31015119  0.07579213    -0.20330
F868        F  0.90659577  0.35854499  0.12003520    -0.20650
F869        F  0.89733056  0.29117736  0.13024920    -0.23320
C870        C  0.97982669  0.28312595  0.32949067    -0.06160
C871        C  0.98594761  0.29998914  0.28910760    -0.00230
C872        C  0.48479115  0.34466915  0.28738011    -0.08810
C873        C  0.49410725  0.36719102  0.32388593    -0.06180
C874        C  0.99596078  0.34808823  0.36301652    -0.00250
C875        C  0.98656366  0.30586872  0.36637903    -0.08710
C876        C  0.98403414  0.28502373  0.40893737     0.61660
H877        H  0.96783129  0.25280086  0.33308534     0.12360
H878        H  0.49613873  0.40074011  0.32253922     0.12370
C879        C  0.46194320  0.36943292  0.25318288     0.61900
F880        F  0.97718016  0.24292918  0.40552019    -0.23270
F881        F  0.95153149  0.30322675  0.43206666    -0.20600
F882        F  0.52136879  0.28956251  0.43022362    -0.20270
F883        F  0.92874898  0.34765245  0.23807569    -0.20330
F884        F  0.48897670  0.37911836  0.22125137    -0.20650
F885        F  0.44474535  0.40663857  0.26860870    -0.23320
N886        N  0.90992315  0.02127638  0.95509099    -0.06500
N887        N  0.88700185  0.03541836  0.92338276    -0.58620
N888        N  0.91303511  0.48037515  0.55212023    -0.06180
N889        N  0.89227606  0.46685363  0.58495526    -0.60750
N890        N  0.91224422  0.02126311  0.55175978    -0.05780
N891        N  0.89110041  0.03636811  0.58425584    -0.58590
N892        N  0.91061699  0.48044614  0.95555027    -0.05450
N893        N  0.88836934  0.46605926  0.92433727    -0.61100
C894        C  0.87373879  0.50052274  0.90426245     0.95680
C895        C  0.87902968  0.00222097  0.60493983     0.95460
N896        N  0.52468567  0.40664610  0.54750451    -0.06680
N897        N  0.53900329  0.38102367  0.57711732    -0.59200
N898        N  0.98066101  0.41054622  0.95268920    -0.04800
N899        N  0.96468551  0.38944188  0.92152755    -0.60450
N900        N  0.52190629  0.40898651  0.95074290    -0.06710
N901        N  0.53489193  0.38661465  0.91804275    -0.59460
N902        N  0.98351035  0.40928881  0.54855201    -0.04450
N903        N  0.96914319  0.38586811  0.57858510    -0.60540
Mn904      Mn  0.94608890  0.44433737  0.50244351     1.18440
C905        C  0.50369694  0.36796432  0.59612144     0.97760
C906        C  0.99873633  0.37469833  0.90033305     0.98420
N907        N  0.98062253  0.08823553  0.55114496    -0.06730
N908        N  0.96688209  0.10995182  0.58394281    -0.63040
N909        N  0.51987528  0.08804015  0.95342400    -0.05540
N910        N  0.53340587  0.10931675  0.92109330    -0.63720
N911        N  0.97868089  0.08898099  0.95420906    -0.06240
N912        N  0.96339588  0.11097680  0.92250689    -0.63310
N913        N  0.52181470  0.08686133  0.55017675    -0.05140
N914        N  0.53679391  0.10770609  0.58209329    -0.64000
Mn915      Mn  0.94427076  0.05605951  0.00295278     1.10660
C916        C  0.50234468  0.12190717  0.60322693     0.98980
C917        C  0.99781324  0.12334280  0.90185618     0.99060
N918        N  0.59131169  0.47678780  0.95023987    -0.06250
N919        N  0.61383334  0.46313918  0.91787246    -0.61620
N920        N  0.59219196  0.01579823  0.54740647    -0.05570
N921        N  0.61470114  0.02945707  0.57876374    -0.58350
N922        N  0.59308306  0.47485439  0.54697749    -0.06880
N923        N  0.61612922  0.45987686  0.57824838    -0.61190
N924        N  0.59015480  0.01771138  0.95125914    -0.05860
N925        N  0.61160560  0.03268495  0.91972819    -0.58370
Mn926      Mn  0.55903538  0.44062664  0.49875644     1.20190
Mn927      Mn  0.55698670  0.05308615  0.00061891     1.10090
Cl928      Cl  0.50170380  0.99848649  0.50122190    -0.86340
C929        C  0.62646610  0.49837479  0.89926121     0.95990
C930        C  0.62928765  0.99434311  0.59790335     0.95790
C931        C  0.99490242  0.27160744  0.75058742     0.00180
C932        C  0.99890664  0.22815266  0.75195116     0.00180
C933        C  0.77195484  0.50938767  0.75236860     0.00180
C934        C  0.72876404  0.51246169  0.74879853     0.00180
C935        C  0.68594687  0.02671157  0.63633791    -0.06160
C936        C  0.65736230  0.49486615  0.63474477    -0.00230
C937        C  0.65408602  0.46772719  0.66928293    -0.08810
C938        C  0.67922198  0.47439183  0.70465608    -0.06180
C939        C  0.70689247  0.50753410  0.70729532    -0.00250
C940        C  0.71002206  0.03452297  0.67201032    -0.08710
C941        C  0.73534208  0.07335102  0.66924251     0.61660
H942        H  0.68828852  0.04721754  0.60953823     0.12360
H943        H  0.67689926  0.45378908  0.73125267     0.12370
C944        C  0.62326212  0.43291222  0.66975848     0.61900
F945        F  0.70904433  0.60689037  0.65846136    -0.23270
F946        F  0.76556601  0.56791278  0.63839846    -0.20600
F947        F  0.75464831  0.08338607  0.70588095    -0.20270
F948        F  0.62273427  0.41278504  0.70804762    -0.20330
F949        F  0.63433338  0.90376339  0.63943709    -0.20650
F950        F  0.58314877  0.94891157  0.66207100    -0.23320
C951        C  0.70938859  0.97679109  0.81518454    -0.06160
C952        C  0.70139162  0.51008449  0.78734317    -0.00230
C953        C  0.66603890  0.53752843  0.79516050    -0.08810
C954        C  0.64298863  0.53246895  0.83238306    -0.06180
C955        C  0.65240588  0.50021218  0.86077298    -0.00250
C956        C  0.68632830  0.97185706  0.85223302    -0.08710
C957        C  0.69911042  0.93715719  0.88236207     0.61660
H958        H  0.73352613  0.95371974  0.80718185     0.12360
H959        H  0.61616062  0.55307565  0.83906398     0.12370
C960        C  0.65021433  0.57040823  0.76403298     0.61900
F961        F  0.73656942  0.41721612  0.87065894    -0.23270
F962        F  0.66858100  0.40780740  0.88324620    -0.20600
F963        F  0.70435940  0.95328983  0.92215995    -0.20270
F964        F  0.63188823  0.55140713  0.73022877    -0.20330
F965        F  0.68234506  0.09414091  0.74999410    -0.20650
F966        F  0.62027124  0.59740278  0.78174785    -0.23320
C967        C  0.82950574  0.53510276  0.70926251    -0.06160
C968        C  0.80029712  0.50414887  0.71510951    -0.00230
C969        C  0.80120259  0.46946379  0.68732331    -0.08810
C970        C  0.82697966  0.47049151  0.65156320    -0.06180
C971        C  0.85370383  0.50331509  0.64402740    -0.00250
C972        C  0.85637323  0.03538669  0.67437954    -0.08710
C973        C  0.88744696  0.06975868  0.67084432     0.61660
H974        H  0.83016028  0.06015713  0.73194854     0.12360
H975        H  0.82647917  0.44490211  0.62940467     0.12370
C976        C  0.77812245  0.42966303  0.69418238     0.61900
F977        F  0.89012860  0.59171351  0.70793015    -0.23270
F978        F  0.87479443  0.59733088  0.63968780    -0.20600
F979        F  0.92708546  0.05314096  0.66187697    -0.20270
F980        F  0.75664628  0.42882924  0.73165592    -0.20330
F981        F  0.80685927  0.89631151  0.69407107    -0.20650
F982        F  0.75010701  0.92443062  0.66176427    -0.23320
C983        C  0.81477140  0.47029979  0.80468390    -0.06160
C984        C  0.79450978  0.50835788  0.79392478    -0.00230
C985        C  0.80039280  0.04338933  0.82038619    -0.08810
C986        C  0.82671068  0.03889177  0.85538008    -0.06180
C987        C  0.84625906  0.50077370  0.86645138    -0.00250
C988        C  0.83933916  0.46525561  0.84104929    -0.08710
C989        C  0.85764984  0.42213399  0.85132289     0.61660
H990        H  0.81090726  0.44402884  0.78409545     0.12360
H991        H  0.83169619  0.06604048  0.87468945     0.12370
C992        C  0.78160979  0.08672018  0.81383919     0.61900
F993        F  0.84721971  0.39280869  0.82165904    -0.23270
F994        F  0.84217629  0.90919494  0.88946454    -0.20600
F995        F  0.90092077  0.42286378  0.85278576    -0.20270
F996        F  0.75361435  0.08897193  0.78169287    -0.20330
F997        F  0.81327062  0.61369377  0.80547010    -0.20650
F998        F  0.76071199  0.09983083  0.84983653    -0.23320
C999        C  0.03651726  0.18492976  0.69862256    -0.06160
C1000       C  0.99822380  0.20304698  0.71219351    -0.00230
C1001       C  0.96077545  0.19218195  0.69115097    -0.08810
C1002       C  0.96410237  0.16606384  0.65579443    -0.06180
C1003       C  0.00269993  0.14863199  0.64164651    -0.00250
C1004       C  0.03957871  0.15686566  0.66478328    -0.08710
C1005       C  0.08189121  0.13520969  0.65570273     0.61660
H1006       H  0.06437735  0.19223868  0.71552791     0.12360
H1007       H  0.93563516  0.15877295  0.63932288     0.12370
C1008       C  0.91630208  0.20521243  0.70466749     0.61900
F1009       F  0.61147657  0.14390973  0.68586549    -0.23270
F1010       F  0.59713658  0.14819063  0.61753363    -0.20600
F1011       F  0.07775436  0.09253326  0.65532798    -0.20270
F1012       F  0.39505308  0.22320316  0.67129954    -0.20330
F1013       F  0.91455902  0.23281619  0.73793520    -0.20650
F1014       F  0.89513030  0.17046667  0.71623830    -0.23320
C1015       C  0.53213988  0.17369855  0.85581810    -0.06160
C1016       C  0.99731163  0.14947306  0.86339739    -0.00230
C1017       C  0.96446059  0.14973144  0.83364695    -0.08810
C1018       C  0.96747617  0.17523422  0.79819682    -0.06090
C1019       C  0.00135389  0.20107575  0.79089414    -0.00250
C1020       C  0.53532141  0.19915447  0.82007272    -0.08710
C1021       C  0.57564204  0.22189653  0.81392142     0.61660
H1022       H  0.55733273  0.17233165  0.87848127     0.12360
H1023       H  0.94240776  0.17531772  0.77604055     0.12370
C1024       C  0.92651480  0.12282567  0.83826525     0.61900
F1025       F  0.60226622  0.21754275  0.84797677    -0.23270
F1026       F  0.56724084  0.26377312  0.80873338    -0.20600
F1027       F  0.59687574  0.20581267  0.77956893    -0.20270
F1028       F  0.90231171  0.13660125  0.87188523    -0.20330
F1029       F  0.93946723  0.08173922  0.84429012    -0.20650
F1030       F  0.90128892  0.12430913  0.80302256    -0.23320
C1031       C  0.53866980  0.33249750  0.65669973    -0.06160
C1032       C  0.00253004  0.33848796  0.63213551    -0.00230
C1033       C  0.96573085  0.31766891  0.64362705    -0.08810
C1034       C  0.96556564  0.29530124  0.68137541    -0.06180
C1035       C  0.00033852  0.29218379  0.70817242    -0.00250
C1036       C  0.53834643  0.30980304  0.69457611    -0.08710
C1037       C  0.57804169  0.30648348  0.72033172     0.61660
H1038       H  0.56681492  0.34761385  0.64707105     0.12360
H1039       H  0.93656170  0.28337844  0.69196676     0.12370
C1040       C  0.92602813  0.31944877  0.61715137     0.61900
F1041       F  0.61137964  0.32471026  0.70067058    -0.23270
F1042       F  0.58915204  0.26519379  0.72634359    -0.20600
F1043       F  0.07174409  0.32614039  0.75847193    -0.20270
F1044       F  0.43571570  0.31017468  0.57581907    -0.20330
F1045       F  0.90659134  0.35853246  0.62002469    -0.20650
F1046       F  0.89733258  0.29116303  0.63023633    -0.23320
C1047       C  0.97981375  0.28313407  0.82949312    -0.06160
C1048       C  0.98593497  0.29999466  0.78910916    -0.00230
C1049       C  0.48484003  0.34467601  0.78737941    -0.08810
C1050       C  0.49416410  0.36717746  0.82389577    -0.06180
C1051       C  0.99595652  0.34809580  0.86301457    -0.00250
C1052       C  0.98655598  0.30587737  0.86637973    -0.08710
C1053       C  0.98402862  0.28503382  0.90893900     0.61660
H1054       H  0.96781510  0.25281053  0.83308986     0.12360
H1055       H  0.49623964  0.40072259  0.82255764     0.12370
C1056       C  0.46203316  0.36947374  0.75317949     0.61900
F1057       F  0.97717348  0.24293933  0.90552362    -0.23270
F1058       F  0.95152786  0.30323821  0.93206986    -0.20600
F1059       F  0.52125383  0.28950783  0.93023670    -0.20270
F1060       F  0.92874535  0.34765844  0.73806918    -0.20330
F1061       F  0.48908827  0.37912747  0.72125603    -0.20650
F1062       F  0.44488064  0.40669855  0.76860557    -0.23320
N1063       N  0.90991102  0.52128455  0.45508354    -0.06500
N1064       N  0.88698958  0.53542910  0.42337613    -0.58620
N1065       N  0.91305163  0.98037638  0.05213123    -0.06180
N1066       N  0.89228987  0.96685753  0.08496575    -0.60750
N1067       N  0.91223100  0.52125486  0.05175532    -0.05780
N1068       N  0.89108316  0.53636302  0.08424750    -0.58590
N1069       N  0.91062805  0.98046777  0.45554959    -0.05450
N1070       N  0.88838023  0.96608398  0.42433557    -0.61100
C1071       C  0.87375068  0.00054886  0.40426327     0.95680
C1072       C  0.87901274  0.50221782  0.10493514     0.95460
N1073       N  0.52471357  0.90666084  0.04752152    -0.06680
N1074       N  0.53904022  0.88105092  0.07714129    -0.59200
N1075       N  0.98067141  0.91057537  0.45267266    -0.04800
N1076       N  0.96469708  0.88949402  0.42149399    -0.60450
N1077       N  0.52191841  0.90901426  0.45073090    -0.06710
N1078       N  0.53490512  0.88666245  0.41801772    -0.59460
N1079       N  0.98353606  0.90929813  0.04857301    -0.04450
N1080       N  0.96917572  0.88588646  0.07861738    -0.60540
Mn1081     Mn  0.94610638  0.94433501  0.00245865     1.18440
C1082       C  0.50373920  0.86799580  0.09615742     0.97760
C1083       C  0.99874909  0.87476020  0.40029498     0.98420
N1084       N  0.98060624  0.58822903  0.05113172    -0.06730
N1085       N  0.96686590  0.60994589  0.08392939    -0.63040
N1086       N  0.51987384  0.58803126  0.45342538    -0.05540
N1087       N  0.53340892  0.60929166  0.42108572    -0.63720
N1088       N  0.97867670  0.58897932  0.45420973    -0.06240
N1089       N  0.96339619  0.61096503  0.42249879    -0.63310
N1090       N  0.52179505  0.58685511  0.05016067    -0.05140
N1091       N  0.53677323  0.60770228  0.08207573    -0.64000
Mn1092     Mn  0.94426010  0.55606099  0.50295054     1.10660
C1093       C  0.50232392  0.62190322  0.10320937     0.98980
C1094       C  0.99781602  0.62332059  0.40184531     0.99060
N1095       N  0.59132823  0.97680239  0.45024668    -0.06250
N1096       N  0.61384833  0.96315611  0.41787732    -0.61620
N1097       N  0.59217787  0.51579637  0.04739626    -0.05570
N1098       N  0.61468588  0.52945930  0.07875266    -0.58350
N1099       N  0.59310261  0.97487033  0.04697486    -0.06880
N1100       N  0.61614985  0.95989678  0.07824673    -0.61190
N1101       N  0.59014891  0.51770414  0.45126460    -0.05860
N1102       N  0.61159914  0.53267963  0.41973423    -0.58370
Mn1103     Mn  0.55905273  0.94063526  0.99876163     1.20190
Mn1104     Mn  0.55697874  0.55307640  0.50062355     1.10090
Cl1105     Cl  0.50168934  0.49847337  0.00121590    -0.86340
C1106       C  0.62648151  0.99839298  0.39926898     0.95990
C1107       C  0.62927416  0.49434765  0.09789547     0.95790
C1108       C  0.99490789  0.77159163  0.25059578     0.00180
C1109       C  0.99890343  0.72813574  0.25194318     0.00180
C1110       C  0.77196266  0.00941141  0.25237120     0.00180
C1111       C  0.72877201  0.01248667  0.24880193     0.00180
C1112       C  0.68592691  0.52672281  0.13633471    -0.06160
C1113       C  0.65737608  0.99489244  0.13474381    -0.00230
C1114       C  0.65409803  0.96775401  0.16928210    -0.08810
C1115       C  0.67923140  0.97441886  0.20465691    -0.06180
C1116       C  0.70690083  0.00756126  0.20729820    -0.00250
C1117       C  0.71000116  0.53453427  0.17200787    -0.08710
C1118       C  0.73531964  0.57336346  0.16924200     0.61660
H1119       H  0.68826758  0.54723001  0.10953590     0.12360
H1120       H  0.67690817  0.95381560  0.23125302     0.12370
C1121       C  0.62327552  0.93293842  0.16975626     0.61900
F1122       F  0.70905052  0.10691961  0.15847099    -0.23270
F1123       F  0.76557330  0.06794543  0.13840445    -0.20600
F1124       F  0.75462638  0.58339689  0.20588070    -0.20270
F1125       F  0.62274119  0.91281821  0.20804861    -0.20330
F1126       F  0.63432747  0.40376759  0.13943023    -0.20650
F1127       F  0.58313617  0.44891065  0.16205981    -0.23320
C1128       C  0.70937336  0.47679453  0.31517923    -0.06160
C1129       C  0.70140032  0.01010722  0.28734707    -0.00230
C1130       C  0.66604655  0.03754933  0.29516607    -0.08810
C1131       C  0.64299859  0.03248885  0.33239003    -0.06180
C1132       C  0.65241909  0.00023252  0.36077954    -0.00250
C1133       C  0.68631512  0.47185704  0.35222843    -0.08710
C1134       C  0.69909885  0.43715453  0.38235380     0.61660
H1135       H  0.73351126  0.45372454  0.30717400     0.12360
H1136       H  0.61616999  0.05309426  0.33907249     0.12370
C1137       C  0.65021885  0.07042827  0.26403913     0.61900
F1138       F  0.73658770  0.91724121  0.37066197    -0.23270
F1139       F  0.66860063  0.90782803  0.38325225    -0.20600
F1140       F  0.70435077  0.45328378  0.42215264    -0.20270
F1141       F  0.63189336  0.05142602  0.23023524    -0.20330
F1142       F  0.68232068  0.59414786  0.24999636    -0.20650
F1143       F  0.62027423  0.09742055  0.28175484    -0.23320
C1144       C  0.82951161  0.03512134  0.20926053    -0.06160
C1145       C  0.80030314  0.00416848  0.21511137    -0.00230
C1146       C  0.80120852  0.96947988  0.18732936    -0.08810
C1147       C  0.82698630  0.97050282  0.15156934    -0.06180
C1148       C  0.85371118  0.00332500  0.14403028    -0.00250
C1149       C  0.85635297  0.53538966  0.17437034    -0.08710
C1150       C  0.88742745  0.56976019  0.17083289     0.61660
H1151       H  0.83013869  0.56016599  0.23193647     0.12360
H1152       H  0.82648620  0.94491079  0.12941387     0.12370
C1153       C  0.77812816  0.92968006  0.19419318     0.61900
F1154       F  0.89013963  0.09172394  0.20792597    -0.23270
F1155       F  0.87480116  0.09734243  0.13968420    -0.20600
F1156       F  0.92706549  0.55314169  0.16186495    -0.20270
F1157       F  0.75665000  0.92885163  0.23166574    -0.20330
F1158       F  0.80684070  0.39631683  0.19407505    -0.20650
F1159       F  0.75008877  0.42443138  0.16176388    -0.23320
C1160       C  0.81478193  0.97032559  0.30468551    -0.06160
C1161       C  0.79451921  0.00838306  0.29392672    -0.00230
C1162       C  0.80037726  0.54340056  0.32037865    -0.08810
C1163       C  0.82669871  0.53890440  0.35537019    -0.06180
C1164       C  0.84627171  0.00080079  0.36645146    -0.00250
C1165       C  0.83935075  0.96528214  0.34105010    -0.08710
C1166       C  0.85766128  0.92216037  0.35132348     0.61660
H1167       H  0.81091719  0.94405425  0.28409772     0.12360
H1168       H  0.83168662  0.56605375  0.37467788     0.12370
C1169       C  0.78159178  0.58673052  0.31383275     0.61900
F1170       F  0.84723311  0.89283541  0.32165847    -0.23270
F1171       F  0.84215770  0.40920829  0.38946020    -0.20600
F1172       F  0.90093192  0.92289078  0.35278837    -0.20270
F1173       F  0.75358875  0.58897915  0.28169302    -0.20330
F1174       F  0.81327899  0.11371807  0.30546108    -0.20650
F1175       F  0.76070175  0.59984317  0.34983381    -0.23320
C1176       C  0.03651099  0.68496455  0.19857513    -0.06160
C1177       C  0.99821300  0.70304560  0.21217648    -0.00230
C1178       C  0.96076018  0.69216063  0.19115260    -0.08810
C1179       C  0.96408447  0.66603978  0.15579730    -0.06180
C1180       C  0.00268512  0.64863041  0.14162984    -0.00250
C1181       C  0.03957107  0.65689340  0.16474267    -0.08710
C1182       C  0.08189180  0.63526057  0.15564641     0.61660
H1183       H  0.06437779  0.69230959  0.21544949     0.12360
H1184       H  0.93561408  0.65873158  0.13934049     0.12370
C1185       C  0.91628735  0.70518523  0.20468038     0.61900
F1186       F  0.61148409  0.64399832  0.18578245    -0.23270
F1187       F  0.59710450  0.64824870  0.11745672    -0.20600
F1188       F  0.07778137  0.59258047  0.15528587    -0.20270
F1189       F  0.39500623  0.72313680  0.17131393    -0.20330
F1190       F  0.91454995  0.73281365  0.23792793    -0.20650
F1191       F  0.89513114  0.67044116  0.21628428    -0.23320
C1192       C  0.53217573  0.67361194  0.35576036    -0.06160
C1193       C  0.99732008  0.64943818  0.36337742    -0.00230
C1194       C  0.96444928  0.64972633  0.33364724    -0.08810
C1195       C  0.96746384  0.67523145  0.29819999    -0.06090
C1196       C  0.00135873  0.70104228  0.29087378    -0.00250
C1197       C  0.53535350  0.69907103  0.32001734    -0.08710
C1198       C  0.57568321  0.72179453  0.31385217     0.61660
H1199       H  0.55738809  0.67221729  0.37840405     0.12360
H1200       H  0.94236747  0.67534577  0.27605918     0.12370
C1201       C  0.92648282  0.62285186  0.33828561     0.61900
F1202       F  0.60233228  0.71740167  0.34788419    -0.23270
F1203       F  0.56729786  0.76367860  0.30870319    -0.20600
F1204       F  0.59688406  0.70572734  0.27947307    -0.20270
F1205       F  0.90230652  0.63664621  0.37191714    -0.20330
F1206       F  0.93940531  0.58175621  0.34430380    -0.20650
F1207       F  0.90124006  0.62435539  0.30305535    -0.23320
C1208       C  0.53869068  0.83258994  0.15678596    -0.06160
C1209       C  0.00257399  0.83850899  0.13216185    -0.00230
C1210       C  0.96579824  0.81762741  0.14360055    -0.08810
C1211       C  0.96561975  0.79525335  0.18134482    -0.06180
C1212       C  0.00036185  0.79218334  0.20818693    -0.00250
C1213       C  0.53835591  0.80987628  0.19465163    -0.08710
C1214       C  0.57803103  0.80657775  0.22043885     0.61660
H1215       H  0.56681882  0.84776084  0.14720162     0.12360
H1216       H  0.93662525  0.78328118  0.19189026     0.12370
C1217       C  0.92613331  0.81934491  0.11706825     0.61900
F1218       F  0.61136270  0.82485998  0.20082399    -0.23270
F1219       F  0.58918265  0.76529130  0.22641509    -0.20600
F1220       F  0.07169735  0.82617906  0.25857078    -0.20270
F1221       F  0.43593431  0.81010379  0.07572541    -0.20330
F1222       F  0.90661532  0.85839124  0.11994099    -0.20650
F1223       F  0.89748110  0.79098989  0.13009116    -0.23320
C1224       C  0.97993405  0.78311800  0.32953151    -0.06160
C1225       C  0.98594652  0.79997241  0.28912596    -0.00230
C1226       C  0.48471349  0.84465025  0.28737324    -0.08810
C1227       C  0.49402660  0.86720779  0.32385840    -0.06180
C1228       C  0.99597199  0.84813832  0.36299064    -0.00250
C1229       C  0.98668528  0.80589537  0.36639370    -0.08710
C1230       C  0.98427223  0.78506629  0.40896964     0.61660
H1231       H  0.96800374  0.75277422  0.33317522     0.12360
H1232       H  0.49598791  0.90076289  0.32249398     0.12370
C1233       C  0.46179986  0.86935854  0.25317995     0.61900
F1234       F  0.97749593  0.74295351  0.40559147    -0.23270
F1235       F  0.95177683  0.80322044  0.43214570    -0.20600
F1236       F  0.52158505  0.78965316  0.43019094    -0.20270
F1237       F  0.92862502  0.84746203  0.23808594    -0.20330
F1238       F  0.48880118  0.87910122  0.22123984    -0.20650
F1239       F  0.44452259  0.90652941  0.26860761    -0.23320
N1240       N  0.90990572  0.52128624  0.95508036    -0.06500
N1241       N  0.88698575  0.53543028  0.92337213    -0.58620
N1242       N  0.91304037  0.98038426  0.55211618    -0.06180
N1243       N  0.89228544  0.96685775  0.58495162    -0.60750
N1244       N  0.91223900  0.52125383  0.55175816    -0.05780
N1245       N  0.89109096  0.53636368  0.58424912    -0.58590
N1246       N  0.91063437  0.98043604  0.95556372    -0.05450
N1247       N  0.88838524  0.96604739  0.92435219    -0.61100
C1248       C  0.87375374  0.00050995  0.90427561     0.95680
C1249       C  0.87901780  0.50221988  0.60493676     0.95460
N1250       N  0.52470313  0.90665049  0.54749910    -0.06680
N1251       N  0.53902085  0.88103433  0.57711771    -0.59200
N1252       N  0.98067848  0.91053197  0.95270735    -0.04800
N1253       N  0.96470051  0.88942278  0.92154998    -0.60450
N1254       N  0.52191574  0.90899490  0.95075353    -0.06710
N1255       N  0.53489977  0.88663067  0.91804747    -0.59460
N1256       N  0.98351149  0.90929528  0.54853887    -0.04450
N1257       N  0.96914141  0.88587268  0.57856925    -0.60540
Mn1258     Mn  0.94609419  0.94435498  0.50243410     1.18440
C1259       C  0.50371448  0.86797676  0.59612334     0.97760
C1260       C  0.99874929  0.87467819  0.90035235     0.98420
N1261       N  0.98061794  0.58822730  0.55113723    -0.06730
N1262       N  0.96687941  0.60994887  0.58393296    -0.63040
N1263       N  0.51986944  0.58803155  0.95341716    -0.05540
N1264       N  0.53340254  0.60930552  0.92108554    -0.63720
N1265       N  0.97866635  0.58898835  0.95420521    -0.06240
N1266       N  0.96338494  0.61098454  0.92250128    -0.63310
N1267       N  0.52179885  0.58685837  0.55017044    -0.05140
N1268       N  0.53677857  0.60770637  0.58208469    -0.64000
Mn1269     Mn  0.94425114  0.55606402  0.00294610     1.10660
C1270       C  0.50233018  0.62191164  0.60321750     0.98980
C1271       C  0.99780450  0.62335013  0.90185337     0.99060
N1272       N  0.59131949  0.97679638  0.95024374    -0.06250
N1273       N  0.61384229  0.96314622  0.91787774    -0.61620
N1274       N  0.59217536  0.51579271  0.54740318    -0.05570
N1275       N  0.61468559  0.52945327  0.57875862    -0.58350
N1276       N  0.59309922  0.97485981  0.54697898    -0.06880
N1277       N  0.61614388  0.95988068  0.57825044    -0.61190
N1278       N  0.59014750  0.51770269  0.95125733    -0.05860
N1279       N  0.61159733  0.53267787  0.91972676    -0.58370
Mn1280     Mn  0.55905264  0.94063545  0.49875360     1.20190
Mn1281     Mn  0.55697705  0.55307596  0.00061498     1.10090
Cl1282     Cl  0.50168719  0.49847811  0.50122173    -0.86340
C1283       C  0.62647533  0.99838076  0.89926472     0.95990
C1284       C  0.62927333  0.49434025  0.59789897     0.95790
C1285       C  0.99490874  0.77161264  0.75058205     0.00180
C1286       C  0.99891262  0.72815689  0.75194273     0.00180
C1287       C  0.77197353  0.00937612  0.75237673     0.00180
C1288       C  0.72878251  0.01245299  0.74880482     0.00180
C1289       C  0.68592516  0.52671794  0.63633446    -0.06160
C1290       C  0.65737608  0.99486675  0.63475024    -0.00230
C1291       C  0.65409208  0.96773258  0.66929121    -0.08810
C1292       C  0.67923145  0.97439216  0.70466328    -0.06180
C1293       C  0.70691011  0.00752794  0.70730082    -0.00250
C1294       C  0.70999885  0.53453206  0.67200676    -0.08710
C1295       C  0.73531069  0.57336572  0.66924125     0.61660
H1296       H  0.68826177  0.54722683  0.60953648     0.12360
H1297       H  0.67690452  0.95379103  0.73126067     0.12370
C1298       C  0.62325559  0.93292896  0.66977108     0.61900
F1299       F  0.70908315  0.10687941  0.65845695    -0.23270
F1300       F  0.76559889  0.06788873  0.63840250    -0.20600
F1301       F  0.75461795  0.58340044  0.70587912    -0.20270
F1302       F  0.62271865  0.91280904  0.70806376    -0.20330
F1303       F  0.63434850  0.40375487  0.63941934    -0.20650
F1304       F  0.58314985  0.44888245  0.66206280    -0.23320
C1305       C  0.70937515  0.47679435  0.81517624    -0.06160
C1306       C  0.70140862  0.01008004  0.78734920    -0.00230
C1307       C  0.66605797  0.03752740  0.79516433    -0.08810
C1308       C  0.64300523  0.03247137  0.83238605    -0.06180
C1309       C  0.65241851  0.00021545  0.86077805    -0.00250
C1310       C  0.68631675  0.47185631  0.85222503    -0.08710
C1311       C  0.69910181  0.43715503  0.88235132     0.61660
H1312       H  0.73351399  0.45372518  0.80717156     0.12360
H1313       H  0.61617812  0.05308011  0.83906442     0.12370
C1314       C  0.65023718  0.07040685  0.76403478     0.61900
F1315       F  0.73657813  0.91721645  0.87067298    -0.23270
F1316       F  0.66858859  0.90781058  0.88325694    -0.20600
F1317       F  0.70435254  0.45328550  0.92214983    -0.20270
F1318       F  0.63190509  0.05140581  0.73023391    -0.20330
F1319       F  0.68231875  0.59414950  0.74999729    -0.20650
F1320       F  0.62030016  0.09740819  0.78174945    -0.23320
C1321       C  0.82953389  0.03508634  0.70927831    -0.06160
C1322       C  0.80031788  0.00413763  0.71511873    -0.00230
C1323       C  0.80121634  0.96945830  0.68732546    -0.08810
C1324       C  0.82699086  0.97048971  0.65156365    -0.06180
C1325       C  0.85372095  0.00330987  0.64403393    -0.00250
C1326       C  0.85634556  0.53540143  0.67436418    -0.08710
C1327       C  0.88740843  0.56978222  0.67082072     0.61660
H1328       H  0.83012625  0.56017815  0.73192793     0.12360
H1329       H  0.82648366  0.94490598  0.62939892     0.12370
C1330       C  0.77813108  0.92965967  0.69417888     0.61900
F1331       F  0.89017952  0.09167659  0.70796094    -0.23270
F1332       F  0.87483736  0.09732114  0.63972209    -0.20600
F1333       F  0.92705303  0.55317387  0.66186425    -0.20270
F1334       F  0.75666034  0.92882112  0.73165552    -0.20330
F1335       F  0.80685548  0.39631893  0.69408567    -0.20650
F1336       F  0.75010386  0.42442283  0.66176516    -0.23320
C1337       C  0.81478797  0.97028701  0.80469425    -0.06160
C1338       C  0.79452670  0.00834527  0.79393446    -0.00230
C1339       C  0.80037852  0.54340281  0.82037455    -0.08810
C1340       C  0.82669911  0.53890594  0.85536617    -0.06180
C1341       C  0.84627282  0.00076012  0.86646448    -0.00250
C1342       C  0.83935488  0.96524267  0.84106074    -0.08710
C1343       C  0.85766706  0.92212169  0.85133399     0.61660
H1344       H  0.81092446  0.94401628  0.78410508     0.12360
H1345       H  0.83168738  0.56605522  0.87467385     0.12370
C1346       C  0.78159617  0.58673378  0.81382730     0.61900
F1347       F  0.84723833  0.89279642  0.82166956    -0.23270
F1348       F  0.84215893  0.40920817  0.88945373    -0.20600
F1349       F  0.90093790  0.92285315  0.85279750    -0.20270
F1350       F  0.75359025  0.58898237  0.78169005    -0.20330
F1351       F  0.81328489  0.11368335  0.80549582    -0.20650
F1352       F  0.76071002  0.59985061  0.84982915    -0.23320
C1353       C  0.03652078  0.68492941  0.69861231    -0.06160
C1354       C  0.99822918  0.70305201  0.71218273    -0.00230
C1355       C  0.96078066  0.69219185  0.69113763    -0.08810
C1356       C  0.96410513  0.66607306  0.65578041    -0.06180
C1357       C  0.00270087  0.64863622  0.64163258    -0.00250
C1358       C  0.03958030  0.65686736  0.66477013    -0.08710
C1359       C  0.08189198  0.63521107  0.65568663     0.61660
H1360       H  0.06438098  0.69223217  0.71552072     0.12360
H1361       H  0.93563713  0.65878485  0.63930872     0.12370
C1362       C  0.91630883  0.70522785  0.70465310     0.61900
F1363       F  0.61147612  0.64394484  0.68582928    -0.23270
F1364       F  0.59711893  0.64821389  0.61750028    -0.20600
F1365       F  0.07775504  0.59253468  0.65531297    -0.20270
F1366       F  0.39504219  0.72320630  0.67130099    -0.20330
F1367       F  0.91456787  0.73282488  0.73792633    -0.20650
F1368       F  0.89513009  0.67048459  0.71621678    -0.23320
C1369       C  0.53215076  0.67367130  0.85579559    -0.06160
C1370       C  0.99730722  0.64947899  0.86339226    -0.00230
C1371       C  0.96446051  0.64973439  0.83363681    -0.08810
C1372       C  0.96747971  0.67523500  0.79818456    -0.06090
C1373       C  0.00135712  0.70107868  0.79088579    -0.00250
C1374       C  0.53533209  0.69913095  0.82005248    -0.08710
C1375       C  0.57565662  0.72186571  0.81389769     0.61660
H1376       H  0.55735026  0.67229233  0.87845189     0.12360
H1377       H  0.94241670  0.67531529  0.77602551     0.12370
C1378       C  0.92651506  0.62282768  0.83825205     0.61900
F1379       F  0.60228864  0.71749662  0.84794539    -0.23270
F1380       F  0.56726235  0.76374535  0.80872380    -0.20600
F1381       F  0.59687887  0.70578799  0.77953571    -0.20270
F1382       F  0.90230768  0.63660449  0.87186854    -0.20330
F1383       F  0.93946818  0.58174199  0.84428091    -0.20650
F1384       F  0.90129320  0.62430823  0.80300639    -0.23320
C1385       C  0.53867859  0.83253004  0.65672118    -0.06160
C1386       C  0.00252351  0.83849540  0.63212805    -0.00230
C1387       C  0.96571825  0.81769256  0.64363383    -0.08810
C1388       C  0.96555748  0.79532327  0.68138178    -0.06180
C1389       C  0.00033854  0.79219103  0.70816705    -0.00250
C1390       C  0.53835130  0.80983225  0.69459635    -0.08710
C1391       C  0.57804133  0.80651658  0.72036018     0.61660
H1392       H  0.56682075  0.84765677  0.64710212     0.12360
H1393       H  0.93655173  0.78341190  0.69198371     0.12370
C1394       C  0.92600462  0.81949130  0.61717452     0.61900
F1395       F  0.61137767  0.82475895  0.70071229    -0.23270
F1396       F  0.58916221  0.76522730  0.72636074    -0.20600
F1397       F  0.07175962  0.82613224  0.75844955    -0.20270
F1398       F  0.43576681  0.81016595  0.57580115    -0.20330
F1399       F  0.90659322  0.85858673  0.62004657    -0.20650
F1400       F  0.89729488  0.79122772  0.63027838    -0.23320
C1401       C  0.97980764  0.78313260  0.82948714    -0.06160
C1402       C  0.98594564  0.79999784  0.78910771    -0.00230
C1403       C  0.48480926  0.84467697  0.78738764    -0.08810
C1404       C  0.49412774  0.86719173  0.82389813    -0.06180
C1405       C  0.99596644  0.84808202  0.86302746    -0.00250
C1406       C  0.98654702  0.80586711  0.86638086    -0.08710
C1407       C  0.98399884  0.78501721  0.90893516     0.61660
H1408       H  0.96779794  0.75281216  0.83307337     0.12360
H1409       H  0.49617056  0.90073985  0.82255572     0.12370
C1410       C  0.46197526  0.86945234  0.75318956     0.61900
F1411       F  0.97712959  0.74292633  0.90550937    -0.23270
F1412       F  0.95149687  0.80322863  0.93205904    -0.20600
F1413       F  0.52135235  0.78954703  0.93023009    -0.20270
F1414       F  0.92877519  0.84770034  0.73807786    -0.20330
F1415       F  0.48901591  0.87912674  0.72126048    -0.20650
F1416       F  0.44479304  0.90666464  0.76861532    -0.23320
loop_ 
_geom_bond_atom_site_label_1 
_geom_bond_atom_site_label_2 
_geom_bond_distance 
_geom_bond_site_symmetry_2 
_ccdc_geom_bond_type 
N1            N2   1.321       .  A
N1          N361   1.313   1_545  A
N1          Mn30   2.209       .  S
N2          C363   1.358       .  A
N3            N4   1.322       .  A
N3          N359   1.314       .  A
N3          Mn19   2.204       .  S
N4          C364   1.356       .  A
N5            N6   1.318       .  A
N5          N357   1.314   1_545  A
N5         Mn207   2.194       .  S
N6           C10   1.351       .  A
N7            N8   1.318       .  A
N7          N355   1.313       .  A
N7         Mn196   2.187       .  S
N8            C9   1.350       .  A
C9          N356   1.358       .  A
C9          C102   1.493       .  S
C10         N358   1.356   1_545  A
C10         C440   1.484       .  S
N11          N12   1.326       .  A
N11         N725   1.314   1_455  A
N11         Mn41   2.216   1_554  S
N12          C20   1.359       .  A
N13          N14   1.317       .  A
N13         N723   1.316       .  A
N13        Mn196   2.194       .  S
N14          C21   1.349       .  A
N15          N16   1.323       .  A
N15         N721   1.316   1_455  A
N15        Mn218   2.209       .  S
N16         C729   1.354   1_455  A
N17          N18   1.313       .  A
N17         N719   1.314       .  A
N17         Mn19   2.185       .  S
N18         C728   1.348       .  A
Mn19        N184   2.187   1_554  S
Mn19        N190   2.194   1_554  S
Mn19      Cl1105   2.533       .  S
C20         N726   1.348   1_455  A
C20         C855   1.493       .  S
C21         N724   1.354       .  A
C21         C166   1.470       .  S
N22          N23   1.322       .  A
N22         N736   1.313       .  A
N22        Mn207   2.208       .  S
N23         C739   1.357       .  A
N24          N25   1.320       .  A
N24         N734   1.314   1_455  A
N24         Mn42   2.202       .  S
N25         C740   1.355   1_455  A
N26          N27   1.319       .  A
N26         N732   1.314       .  A
N26         Mn30   2.199       .  S
N27          C32   1.353       .  A
N28          N29   1.319       .  A
N28         N730   1.313   1_455  A
N28        Mn219   2.198       .  S
N29          C31   1.352       .  A
Mn30        N182   2.194       .  S
Mn30        N199   2.208       .  S
Mn30       Cl928   2.555   1_545  S
C31         N731   1.357   1_455  A
C31         C826   1.496       .  S
C32         N733   1.355       .  A
C32         C131   1.489       .  S
N33          N34   1.322       .  A
N33         N393   1.315       .  A
N33        Mn218   2.214       .  S
N34          C44   1.355       .  A
N35          N36   1.317       .  A
N35         N391   1.316   1_545  A
N35        Mn219   2.200       .  S
N36          C45   1.352   1_545  A
N37          N38   1.322       .  A
N37         N389   1.316       .  A
N37         Mn41   2.203   1_554  S
N38         C399   1.353       .  A
N39          N40   1.318       .  A
N39         N387   1.315   1_545  A
N39         Mn42   2.188       .  S
N40         C398   1.351   1_545  A
Mn41        N192   2.209       .  S
Mn41        N210   2.214       .  S
Mn41       Cl397   2.560   1_556  S
Mn42        N205   2.198       .  S
Mn42        N212   2.200       .  S
Mn42       Cl220   2.537   1_545  S
Cl43      Mn1081   2.533   1_455  S
Cl43       Mn915   2.555   1_465  S
Cl43       Mn395   2.560   1_554  S
Cl43       Mn219   2.537   1_565  S
C44         N394   1.351       .  A
C44          C70   1.482       .  S
C45         N392   1.353       .  A
C45         C405   1.480       .  S
C46          C47   1.399       .  D
C46         C150   1.521       .  S
C46         C163   1.549       .  S
C47         C115   1.503       .  S
C47         C134   1.520       .  S
C48          C49   1.383       .  D
C48          C83   1.498       .  S
C48          C99   1.510       .  S
C49          C54   1.509       .  S
C49          C67   1.511       .  S
C50          C55   1.402       .  A
C50         C405   1.398   1_545  A
C50          H57   1.085       .  S
C51         C399   1.480       .  S
C51          C52   1.414       .  A
C51         C404   1.398       .  A
C52          C53   1.407       .  A
C52          C59   1.519       .  S
C53          C54   1.412       .  A
C53          H58   1.082       .  S
C54         C409   1.429       .  A
C55         C408   1.429       .  A
C55          C56   1.516       .  S
C56          F62   1.367       .  S
C56         F414   1.384       .  S
C56         F415   1.383       .  S
C59          F63   1.385       .  S
C59         F418   1.382       .  S
C59         F419   1.383       .  S
F60         C410   1.384       .  S
F61         C410   1.383       .  S
F64         C413   1.382       .  S
F65         C413   1.383       .  S
C66          C71   1.404       .  A
C66         C421   1.409   1_565  A
C66          H73   1.079       .  S
C67          C68   1.427       .  A
C67         C420   1.409       .  A
C68          C69   1.409       .  A
C68          C75   1.525       .  S
C69          C70   1.403       .  A
C69          H74   1.083       .  S
C70         C425   1.414       .  A
C71         C424   1.414   1_565  A
C71          C72   1.519       .  S
C72          F78   1.384       .  S
C72         F430   1.385       .  S
C72         F431   1.382       .  S
C75          F79   1.381       .  S
C75          F81   1.385       .  S
C75         F434   1.376       .  S
F76         C426   1.385       .  S
F77         C426   1.382       .  S
F80         C429   1.376       .  S
C82          C83   1.402       .  A
C82         C441   1.404       .  A
C82         H443   1.083       .  S
C83          C84   1.423       .  A
C84          C85   1.407       .  A
C84          C91   1.517       .  S
C85          C86   1.403       .  A
C85          H90   1.084       .  S
C86         C364   1.484       .  S
C86         C441   1.418       .  A
C87         C436   1.404       .  A
C87         C440   1.418       .  A
C87          C88   1.517       .  S
C88          F94   1.383       .  S
C88         F446   1.382       .  S
C88         F447   1.383       .  S
H89         C436   1.083       .  S
C91          F95   1.378       .  S
C91         F450   1.384       .  S
C91         F451   1.383       .  S
F92         C442   1.382       .  S
F93         C442   1.383       .  S
F96         C445   1.384       .  S
F97         C445   1.383       .  S
C98          C99   1.406       .  A
C98         C103   1.408       .  A
C98         H105   1.080       .  S
C99         C454   1.425       .  A
C100        C101   1.403       .  A
C100        C453   1.425       .  A
C100        C107   1.511       .  S
C101        C456   1.401       .  A
C101        H106   1.084       .  S
C102        C103   1.424       .  A
C102        C455   1.401       .  A
C103        C104   1.521       .  S
C104        F108   1.385       .  S
C104        F110   1.383       .  S
C104        F463   1.383       .  S
C107        F111   1.362       .  S
C107        F113   1.384       .  S
C107        F466   1.383       .  S
F109        C458   1.383       .  S
F112        C461   1.383       .  S
C114        C115   1.401       .  A
C114        C119   1.407       .  A
C114        H121   1.074       .  S
C115        C116   1.427       .  A
C116        C117   1.407       .  A
C116        C123   1.525       .  S
C117        C118   1.407       .  A
C117        H122   1.084       .  S
C118        C739   1.496       .  S
C118        C119   1.424       .  A
C119        C120   1.522       .  S
C120        F126   1.384       .  S
C120        F832   1.385       .  S
C120        F833   1.382       .  S
C123        F128   1.382       .  S
C123        F129   1.379       .  S
C123        F835   1.380       .  S
F124        C828   1.385       .  S
F125        C828   1.382       .  S
F127        C831   1.380       .  S
C130        C135   1.411       .  A
C130        C839   1.402   1_455  A
C130        H137   1.082       .  S
C131        C132   1.416       .  A
C131        C838   1.402       .  A
C132        C133   1.404       .  A
C132        C139   1.522       .  S
C133        C134   1.408       .  A
C133        H138   1.069       .  S
C134        C843   1.430       .  A
C135        C842   1.430       .  A
C135        C136   1.517       .  S
C136        F140   1.385       .  S
C136        F141   1.374       .  S
C136        F142   1.377       .  S
C139        F143   1.383       .  S
C139        F144   1.383       .  S
C139        F145   1.384       .  S
C146        C151   1.414       .  A
C146        C855   1.403       .  A
C146        H153   1.082       .  S
C147        C728   1.493       .  S
C147        C148   1.422       .  A
C147        C854   1.403       .  A
C148        C149   1.405       .  A
C148        C155   1.524       .  S
C149        C150   1.403       .  A
C149        H154   1.070       .  S
C150        C859   1.426       .  A
C151        C858   1.426       .  A
C151        C152   1.512       .  S
C152        F156   1.384       .  S
C152        F157   1.375       .  S
C152        F866   1.380       .  S
C155        F160   1.383       .  S
C155        F161   1.380       .  S
C155        F867   1.384       .  S
F158        C860   1.380       .  S
F159        C863   1.384       .  S
C162        C163   1.416       .  A
C162        C167   1.406       .  A
C162        H169   1.068       .  S
C163        C872   1.437       .  A
C164        C165   1.409       .  A
C164        C871   1.437       .  A
C164        C171   1.523       .  S
C165        C874   1.393       .  A
C165        H170   1.084       .  S
C166        C167   1.406       .  A
C166        C873   1.393       .  A
C167        C168   1.519       .  S
C168        F172   1.384       .  S
C168        F173   1.382       .  S
C168        F882   1.384       .  S
C171        F176   1.378       .  S
C171        F177   1.386       .  S
C171        F883   1.381       .  S
F174        C876   1.384   1_455  S
F175        C879   1.381       .  S
N178        N179   1.321       .  A
N178        N538   1.313   1_545  A
N178       Mn207   2.209   1_556  S
N179        C540   1.358       .  A
N180        N536   1.314       .  A
N180        N181   1.322       .  A
N180       Mn196   2.204       .  S
N181        C541   1.356       .  A
N182        N534   1.314   1_545  A
N182        N183   1.318       .  A
N183        C187   1.351       .  A
N184        N532   1.313       .  A
N184        N185   1.318       .  A
N185        C186   1.350       .  A
C186        N533   1.358       .  A
C186        C279   1.493       .  S
C187        N535   1.356   1_545  A
C187        C617   1.484       .  S
N188        N902   1.314   1_455  A
N188        N189   1.326       .  A
N188       Mn218   2.216       .  S
N189        C197   1.359       .  A
N190        N191   1.317       .  A
N190        N900   1.316       .  A
N191        C198   1.349       .  A
N192        N898   1.316   1_455  A
N192        N193   1.323       .  A
N193        C906   1.354   1_455  A
N194        N896   1.314       .  A
N194        N195   1.313       .  A
N194       Mn196   2.185       .  S
N195        C905   1.348       .  A
Mn196     Cl1282   2.533       .  S
C197        N903   1.348   1_455  A
C197       C1032   1.493       .  S
C198        N901   1.354       .  A
C198        C343   1.470       .  S
N199        N200   1.322       .  A
N199        N913   1.313       .  A
N200        C916   1.357       .  A
N201        N911   1.314   1_455  A
N201        N202   1.320       .  A
N201       Mn219   2.202   1_556  S
N202        C917   1.355   1_455  A
N203        N909   1.314       .  A
N203        N204   1.319       .  A
N203       Mn207   2.199   1_556  S
N204        C209   1.353       .  A
N205        N907   1.313   1_455  A
N205        N206   1.319       .  A
N206        C208   1.352       .  A
Mn207      Cl751   2.555   1_545  S
C208        N908   1.357   1_455  A
C208       C1003   1.496       .  S
C209        N910   1.355       .  A
C209        C308   1.489       .  S
N210        N211   1.322       .  A
N210        N570   1.315       .  A
N211        C221   1.355       .  A
N212        N213   1.317       .  A
N212        N568   1.316   1_545  A
N213        C222   1.352   1_545  A
N214        N566   1.316       .  A
N214        N215   1.322       .  A
N214       Mn218   2.203       .  S
N215        C576   1.353       .  A
N216        N564   1.315   1_545  A
N216        N217   1.318       .  A
N216       Mn219   2.188   1_556  S
N217        C575   1.351   1_545  A
Mn218      Cl574   2.560       .  S
Cl220     Mn1258   2.533   1_455  S
Cl220      Mn738   2.555   1_465  S
Cl220      Mn572   2.560       .  S
C221        N571   1.351       .  A
C221        C247   1.482       .  S
C222        N569   1.353       .  A
C222        C582   1.480       .  S
C223        C224   1.399       .  D
C223        C327   1.521       .  S
C223        C340   1.549       .  S
C224        C292   1.503       .  S
C224        C311   1.520       .  S
C225        C226   1.383       .  D
C225        C260   1.498       .  S
C225        C276   1.510       .  S
C226        C231   1.509       .  S
C226        C244   1.511       .  S
C227        C582   1.398   1_545  A
C227        C232   1.402       .  A
C227        H234   1.085       .  S
C228        C576   1.480       .  S
C228        C581   1.398       .  A
C228        C229   1.414       .  A
C229        C230   1.407       .  A
C229        C236   1.519       .  S
C230        C231   1.412       .  A
C230        H235   1.082       .  S
C231        C586   1.429       .  A
C232        C585   1.429       .  A
C232        C233   1.516       .  S
C233        F591   1.384       .  S
C233        F592   1.383       .  S
C233        F239   1.367       .  S
C236        F240   1.385       .  S
C236        F595   1.382       .  S
C236        F596   1.383       .  S
F237        C587   1.384       .  S
F238        C587   1.383       .  S
F241        C590   1.382       .  S
F242        C590   1.383       .  S
C243        C598   1.409   1_565  A
C243        C248   1.404       .  A
C243        H250   1.079       .  S
C244        C597   1.409       .  A
C244        C245   1.427       .  A
C245        C246   1.409       .  A
C245        C252   1.525       .  S
C246        C247   1.403       .  A
C246        H251   1.083       .  S
C247        C602   1.414       .  A
C248        C601   1.414   1_565  A
C248        C249   1.519       .  S
C249        F607   1.385       .  S
C249        F608   1.382       .  S
C249        F255   1.384       .  S
C252        F256   1.381       .  S
C252        F611   1.376       .  S
C252        F258   1.385       .  S
F253        C603   1.385       .  S
F254        C603   1.382       .  S
F257        C606   1.376       .  S
C259        C260   1.402       .  A
C259        C618   1.404       .  A
C259        H620   1.083       .  S
C260        C261   1.423       .  A
C261        C262   1.407       .  A
C261        C268   1.517       .  S
C262        C263   1.403       .  A
C262        H267   1.084       .  S
C263        C541   1.484       .  S
C263        C618   1.418       .  A
C264        C613   1.404       .  A
C264        C617   1.418       .  A
C264        C265   1.517       .  S
C265        F623   1.382       .  S
C265        F624   1.383       .  S
C265        F271   1.383       .  S
H266        C613   1.083       .  S
C268        F272   1.378       .  S
C268        F627   1.384       .  S
C268        F628   1.383       .  S
F269        C619   1.382       .  S
F270        C619   1.383       .  S
F273        C622   1.384       .  S
F274        C622   1.383       .  S
C275        C276   1.406       .  A
C275        C280   1.408       .  A
C275        H282   1.080       .  S
C276        C631   1.425       .  A
C277        C630   1.425       .  A
C277        C278   1.403       .  A
C277        C284   1.511       .  S
C278        C633   1.401       .  A
C278        H283   1.084       .  S
C279        C632   1.401       .  A
C279        C280   1.424       .  A
C280        C281   1.521       .  S
C281        F285   1.385       .  S
C281        F640   1.383       .  S
C281        F287   1.383       .  S
C284        F288   1.362       .  S
C284        F643   1.383       .  S
C284        F290   1.384       .  S
F286        C635   1.383       .  S
F289        C638   1.383       .  S
C291        C292   1.401       .  A
C291        C296   1.407       .  A
C291        H298   1.074       .  S
C292        C293   1.427       .  A
C293        C294   1.407       .  A
C293        C300   1.525       .  S
C294        C295   1.407       .  A
C294        H299   1.084       .  S
C295        C916   1.496       .  S
C295        C296   1.424       .  A
C296        C297   1.522       .  S
C297       F1009   1.385       .  S
C297       F1010   1.382       .  S
C297        F303   1.384       .  S
C300       F1012   1.380       .  S
C300        F305   1.382       .  S
C300        F306   1.379       .  S
F301       C1005   1.385       .  S
F302       C1005   1.382       .  S
F304       C1008   1.380       .  S
C307       C1016   1.402   1_455  A
C307        C312   1.411       .  A
C307        H314   1.082       .  S
C308       C1015   1.402       .  A
C308        C309   1.416       .  A
C309        C310   1.404       .  A
C309        C316   1.522       .  S
C310        C311   1.408       .  A
C310        H315   1.069       .  S
C311       C1020   1.430       .  A
C312       C1019   1.430       .  A
C312        C313   1.517       .  S
C313        F317   1.385       .  S
C313        F318   1.374       .  S
C313        F319   1.377       .  S
C316        F320   1.383       .  S
C316        F321   1.383       .  S
C316        F322   1.384       .  S
C323       C1032   1.403       .  A
C323        C328   1.414       .  A
C323        H330   1.082       .  S
C324        C905   1.493       .  S
C324       C1031   1.403       .  A
C324        C325   1.422       .  A
C325        C326   1.405       .  A
C325        C332   1.524       .  S
C326        C327   1.403       .  A
C326        H331   1.070       .  S
C327       C1036   1.426       .  A
C328       C1035   1.426       .  A
C328        C329   1.512       .  S
C329        F333   1.384       .  S
C329        F334   1.375       .  S
C329       F1043   1.380       .  S
C332       F1044   1.384       .  S
C332        F337   1.383       .  S
C332        F338   1.380       .  S
F335       C1037   1.380       .  S
F336       C1040   1.384       .  S
C339        C340   1.415       .  A
C339        C344   1.406       .  A
C339        H346   1.068       .  S
C340       C1049   1.437       .  A
C341       C1048   1.437       .  A
C341        C342   1.409       .  A
C341        C348   1.523       .  S
C342       C1051   1.393       .  A
C342        H347   1.084       .  S
C343       C1050   1.393       .  A
C343        C344   1.406       .  A
C344        C345   1.519       .  S
C345        F349   1.384       .  S
C345        F350   1.382       .  S
C345       F1059   1.384       .  S
C348       F1060   1.381       .  S
C348        F353   1.378       .  S
C348        F354   1.386       .  S
F351       C1053   1.384   1_455  S
F352       C1056   1.381       .  S
N355        N356   1.321       .  A
N355       Mn384   2.209       .  S
N357        N358   1.322       .  A
N357       Mn373   2.204       .  S
N359        N360   1.318       .  A
N359       Mn561   2.194       .  S
N360        C364   1.351       .  A
N361        N362   1.318       .  A
N361       Mn550   2.187       .  S
N362        C363   1.350   1_565  A
C363        C456   1.493       .  S
N365       N1079   1.314   1_455  A
N365        N366   1.326       .  A
N365       Mn395   2.216   1_554  S
N366        C374   1.359       .  A
N367        N368   1.317       .  A
N367       N1077   1.316       .  A
N367       Mn550   2.194       .  S
N368        C375   1.349       .  A
N369       N1075   1.316   1_455  A
N369        N370   1.323       .  A
N369       Mn572   2.209       .  S
N370       C1083   1.354   1_455  A
N371       N1073   1.314       .  A
N371        N372   1.313       .  A
N371       Mn373   2.185       .  S
N372       C1082   1.348       .  A
Mn373       N538   2.187   1_554  S
Mn373       N544   2.194   1_554  S
Mn373      Cl751   2.533       .  S
C374       N1080   1.348   1_455  A
C374       C1209   1.493       .  S
C375       N1078   1.354       .  A
C375        C520   1.470       .  S
N376        N377   1.322       .  A
N376       N1090   1.313       .  A
N376       Mn561   2.207       .  S
N377       C1093   1.357       .  A
N378       N1088   1.314   1_455  A
N378        N379   1.320       .  A
N378       Mn396   2.202       .  S
N379       C1094   1.355   1_455  A
N380       N1086   1.314       .  A
N380        N381   1.319       .  A
N380       Mn384   2.199       .  S
N381        C386   1.353       .  A
N382       N1084   1.313   1_455  A
N382        N383   1.319       .  A
N382       Mn573   2.198       .  S
N383        C385   1.352       .  A
Mn384       N536   2.194       .  S
Mn384       N553   2.208       .  S
Mn384     Cl1282   2.555       .  S
C385       N1085   1.357   1_455  A
C385       C1180   1.496       .  S
C386       N1087   1.355       .  A
C386        C485   1.489       .  S
N387        N388   1.322       .  A
N387       Mn572   2.214       .  S
N388        C398   1.355       .  A
N389        N390   1.317       .  A
N389       Mn573   2.200       .  S
N390        C399   1.352       .  A
N391        N392   1.322       .  A
N391       Mn395   2.203   1_554  S
N393        N394   1.318       .  A
N393       Mn396   2.188       .  S
Mn395       N546   2.209       .  S
Mn395       N564   2.214       .  S
Mn396       N559   2.198       .  S
Mn396       N566   2.200       .  S
Mn396      Cl574   2.537       .  S
Cl397      Mn727   2.533   1_455  S
Cl397     Mn1269   2.555   1_455  S
Cl397      Mn573   2.537       .  S
C398        C424   1.482   1_565  S
C400        C401   1.399       .  D
C400        C504   1.521       .  S
C400        C517   1.549       .  S
C401        C469   1.503       .  S
C401        C488   1.520       .  S
C402        C403   1.383       .  D
C402        C437   1.498       .  S
C402        C453   1.510       .  S
C403        C408   1.509       .  S
C403        C421   1.511       .  S
C404        C409   1.402       .  A
C404        H411   1.085       .  S
C405        C406   1.414       .  A
C406        C407   1.407       .  A
C406        C413   1.519       .  S
C407        C408   1.412   1_565  A
C407        H412   1.082       .  S
C409        C410   1.516       .  S
C410        F416   1.367       .  S
C413        F417   1.385       .  S
C420        C425   1.404       .  A
C420        H427   1.079       .  S
C421        C422   1.427       .  A
C422        C423   1.409       .  A
C422        C429   1.525       .  S
C423        C424   1.403       .  A
C423        H428   1.083       .  S
C425        C426   1.519       .  S
C426        F432   1.384       .  S
C429        F433   1.381       .  S
C429        F435   1.385       .  S
C436        C437   1.402       .  A
C437        C438   1.423   1_545  A
C438        C439   1.407       .  A
C438        C445   1.517       .  S
C439        C440   1.403   1_565  A
C439        H444   1.084       .  S
C441        C442   1.517       .  S
C442        F448   1.383       .  S
C445        F449   1.378       .  S
C452        C453   1.406   1_565  A
C452        C457   1.408       .  A
C452        H459   1.080       .  S
C454        C455   1.403       .  A
C454        C461   1.511       .  S
C455        H460   1.084       .  S
C456        C457   1.424   1_545  A
C457        C458   1.521       .  S
C458        F462   1.385       .  S
C458        F464   1.383       .  S
C461        F465   1.362       .  S
C461        F467   1.384       .  S
C468        C469   1.401       .  A
C468        C473   1.407       .  A
C468        H475   1.074       .  S
C469        C470   1.427       .  A
C470        C471   1.407       .  A
C470        C477   1.525       .  S
C471        C472   1.407       .  A
C471        H476   1.084       .  S
C472       C1093   1.496       .  S
C472        C473   1.424       .  A
C473        C474   1.522       .  S
C474       F1186   1.385       .  S
C474       F1187   1.382       .  S
C474        F480   1.384       .  S
C477       F1189   1.380       .  S
C477        F482   1.382       .  S
C477        F483   1.379       .  S
F478       C1182   1.385       .  S
F479       C1182   1.382       .  S
F481       C1185   1.380       .  S
C484       C1193   1.402   1_455  A
C484        C489   1.411       .  A
C484        H491   1.082       .  S
C485       C1192   1.402       .  A
C485        C486   1.416       .  A
C486        C487   1.404       .  A
C486        C493   1.522       .  S
C487        C488   1.408       .  A
C487        H492   1.069       .  S
C488       C1197   1.430       .  A
C489       C1196   1.430       .  A
C489        C490   1.517       .  S
C490        F494   1.385       .  S
C490        F495   1.374       .  S
C490        F496   1.377       .  S
C493        F497   1.383       .  S
C493        F498   1.383       .  S
C493        F499   1.384       .  S
C500       C1209   1.403       .  A
C500        C505   1.414       .  A
C500        H507   1.082       .  S
C501       C1082   1.493       .  S
C501       C1208   1.403       .  A
C501        C502   1.422       .  A
C502        C503   1.405       .  A
C502        C509   1.524       .  S
C503        C504   1.403       .  A
C503        H508   1.070       .  S
C504       C1213   1.426       .  A
C505       C1212   1.426       .  A
C505        C506   1.512       .  S
C506        F510   1.384       .  S
C506        F511   1.375       .  S
C506       F1220   1.380       .  S
C509       F1221   1.384       .  S
C509        F514   1.383       .  S
C509        F515   1.380       .  S
F512       C1214   1.380       .  S
F513       C1217   1.384       .  S
C516        C517   1.416       .  A
C516        C521   1.406       .  A
C516        H523   1.068       .  S
C517       C1226   1.437       .  A
C518       C1225   1.437       .  A
C518        C519   1.409       .  A
C518        C525   1.523       .  S
C519       C1228   1.393       .  A
C519        H524   1.084       .  S
C520       C1227   1.393       .  A
C520        C521   1.406       .  A
C521        C522   1.519       .  S
C522        F526   1.384       .  S
C522        F527   1.382       .  S
C522       F1236   1.384       .  S
C525       F1237   1.381       .  S
C525        F530   1.378       .  S
C525        F531   1.386       .  S
F528       C1230   1.384   1_455  S
F529       C1233   1.381       .  S
N532        N533   1.321       .  A
N532       Mn561   2.209   1_556  S
N534        N535   1.322       .  A
N534       Mn550   2.204       .  S
N536        N537   1.318       .  A
N537        C541   1.351       .  A
N538        N539   1.318       .  A
N539        C540   1.350   1_565  A
C540        C633   1.493       .  S
N542       N1256   1.314   1_455  A
N542        N543   1.326       .  A
N542       Mn572   2.216       .  S
N543        C551   1.359       .  A
N544        N545   1.317       .  A
N544       N1254   1.316       .  A
N545        C552   1.349       .  A
N546       N1252   1.316   1_455  A
N546        N547   1.323       .  A
N547       C1260   1.354   1_455  A
N548       N1250   1.314       .  A
N548        N549   1.313       .  A
N548       Mn550   2.185       .  S
N549       C1259   1.348       .  A
Mn550      Cl928   2.533       .  S
C551       N1257   1.348   1_455  A
C551       C1386   1.493       .  S
C552       N1255   1.354       .  A
C552        C697   1.470       .  S
N553        N554   1.322       .  A
N553       N1267   1.313       .  A
N554       C1270   1.357       .  A
N555       N1265   1.314   1_455  A
N555        N556   1.320       .  A
N555       Mn573   2.202   1_556  S
N556       C1271   1.355   1_455  A
N557       N1263   1.314       .  A
N557        N558   1.319       .  A
N557       Mn561   2.199   1_556  S
N558        C563   1.353       .  A
N559       N1261   1.313   1_455  A
N559        N560   1.319       .  A
N560        C562   1.352       .  A
Mn561     Cl1105   2.555       .  S
C562       N1262   1.357   1_455  A
C562       C1357   1.496       .  S
C563       N1264   1.355       .  A
C563        C662   1.489       .  S
N564        N565   1.322       .  A
N565        C575   1.355       .  A
N566        N567   1.317       .  A
N567        C576   1.352       .  A
N568        N569   1.322       .  A
N568       Mn572   2.203       .  S
N570        N571   1.318       .  A
N570       Mn573   2.188   1_556  S
Cl574      Mn904   2.533   1_455  S
Cl574     Mn1092   2.555   1_455  S
C575        C601   1.482   1_565  S
C577        C578   1.399       .  D
C577        C681   1.521       .  S
C577        C694   1.549       .  S
C578        C646   1.503       .  S
C578        C665   1.520       .  S
C579        C580   1.383       .  D
C579        C614   1.498       .  S
C579        C630   1.510       .  S
C580        C585   1.509       .  S
C580        C598   1.511       .  S
C581        C586   1.402       .  A
C581        H588   1.085       .  S
C582        C583   1.414       .  A
C583        C584   1.407       .  A
C583        C590   1.519       .  S
C584        C585   1.412   1_565  A
C584        H589   1.082       .  S
C586        C587   1.516       .  S
C587        F593   1.367       .  S
C590        F594   1.385       .  S
C597        C602   1.404       .  A
C597        H604   1.079       .  S
C598        C599   1.427       .  A
C599        C600   1.409       .  A
C599        C606   1.525       .  S
C600        C601   1.403       .  A
C600        H605   1.083       .  S
C602        C603   1.519       .  S
C603        F609   1.384       .  S
C606        F610   1.381       .  S
C606        F612   1.385       .  S
C613        C614   1.402       .  A
C614        C615   1.423   1_545  A
C615        C616   1.407       .  A
C615        C622   1.517       .  S
C616        C617   1.403   1_565  A
C616        H621   1.084       .  S
C618        C619   1.517       .  S
C619        F625   1.383       .  S
C622        F626   1.378       .  S
C629        C630   1.406   1_565  A
C629        C634   1.408       .  A
C629        H636   1.080       .  S
C631        C632   1.403       .  A
C631        C638   1.511       .  S
C632        H637   1.084       .  S
C633        C634   1.424   1_545  A
C634        C635   1.521       .  S
C635        F639   1.385       .  S
C635        F641   1.383       .  S
C638        F642   1.362       .  S
C638        F644   1.384       .  S
C645        C646   1.401       .  A
C645        C650   1.407       .  A
C645        H652   1.074       .  S
C646        C647   1.427       .  A
C647        C648   1.407       .  A
C647        C654   1.525       .  S
C648        C649   1.407       .  A
C648        H653   1.084       .  S
C649       C1270   1.496       .  S
C649        C650   1.424       .  A
C650        C651   1.522       .  S
C651       F1363   1.385       .  S
C651       F1364   1.382       .  S
C651        F657   1.384       .  S
C654       F1366   1.380       .  S
C654        F659   1.382       .  S
C654        F660   1.379       .  S
F655       C1359   1.385       .  S
F656       C1359   1.382       .  S
F658       C1362   1.380       .  S
C661       C1370   1.402   1_455  A
C661        C666   1.411       .  A
C661        H668   1.082       .  S
C662       C1369   1.402       .  A
C662        C663   1.416       .  A
C663        C664   1.404       .  A
C663        C670   1.522       .  S
C664        C665   1.408       .  A
C664        H669   1.069       .  S
C665       C1374   1.430       .  A
C666       C1373   1.430       .  A
C666        C667   1.517       .  S
C667        F671   1.385       .  S
C667        F672   1.374       .  S
C667        F673   1.377       .  S
C670        F674   1.383       .  S
C670        F675   1.383       .  S
C670        F676   1.384       .  S
C677       C1386   1.403       .  A
C677        C682   1.414       .  A
C677        H684   1.082       .  S
C678       C1259   1.493       .  S
C678       C1385   1.403       .  A
C678        C679   1.422       .  A
C679        C680   1.405       .  A
C679        C686   1.524       .  S
C680        C681   1.403       .  A
C680        H685   1.070       .  S
C681       C1390   1.426       .  A
C682       C1389   1.426       .  A
C682        C683   1.512       .  S
C683        F687   1.384       .  S
C683        F688   1.375       .  S
C683       F1397   1.380       .  S
C686       F1398   1.384       .  S
C686        F691   1.383       .  S
C686        F692   1.380       .  S
F689       C1391   1.380       .  S
F690       C1394   1.384       .  S
C693        C694   1.416       .  A
C693        C698   1.406       .  A
C693        H700   1.068       .  S
C694       C1403   1.437       .  A
C695       C1402   1.437       .  A
C695        C696   1.409       .  A
C695        C702   1.523       .  S
C696       C1405   1.393       .  A
C696        H701   1.084       .  S
C697       C1404   1.393       .  A
C697        C698   1.406       .  A
C698        C699   1.519       .  S
C699        F703   1.384       .  S
C699        F704   1.382       .  S
C699       F1413   1.384       .  S
C702       F1414   1.381       .  S
C702        F707   1.378       .  S
C702        F708   1.386       .  S
F705       C1407   1.384   1_455  S
F706       C1410   1.381       .  S
N709        N710   1.321       .  A
N709       N1069   1.313   1_545  A
N709       Mn738   2.209       .  S
N710       C1071   1.358       .  A
N711       N1067   1.314       .  A
N711        N712   1.322       .  A
N711       Mn727   2.204       .  S
N712       C1072   1.356       .  A
N713       N1065   1.314   1_545  A
N713        N714   1.318       .  A
N713       Mn915   2.194       .  S
N714        C718   1.351       .  A
N715       N1063   1.313       .  A
N715        N716   1.318       .  A
N715       Mn904   2.187       .  S
N716        C717   1.350       .  A
C717       N1064   1.358       .  A
C717        C810   1.493       .  S
C718       N1066   1.356   1_545  A
C718       C1148   1.484       .  S
N719        N720   1.326       .  A
N719       Mn749   2.216   1_554  S
N720        C728   1.359       .  A
N721        N722   1.317       .  A
N721       Mn904   2.194       .  S
N722        C729   1.349       .  A
N723        N724   1.323       .  A
N723       Mn926   2.209       .  S
N725        N726   1.313       .  A
N725       Mn727   2.185       .  S
Mn727       N892   2.187   1_554  S
Mn727       N898   2.194   1_554  S
C729        C874   1.470       .  S
N730        N731   1.322       .  A
N730       Mn915   2.208       .  S
N732        N733   1.320       .  A
N732       Mn750   2.202       .  S
N734        N735   1.319       .  A
N734       Mn738   2.199       .  S
N735        C740   1.353       .  A
N736        N737   1.319       .  A
N736       Mn927   2.198       .  S
N737        C739   1.352       .  A
Mn738       N890   2.194       .  S
Mn738       N907   2.208       .  S
C740        C839   1.489       .  S
N741        N742   1.322       .  A
N741       N1101   1.315       .  A
N741       Mn926   2.214       .  S
N742        C752   1.355       .  A
N743        N744   1.317       .  A
N743       N1099   1.316   1_545  A
N743       Mn927   2.200       .  S
N744        C753   1.352   1_545  A
N745       N1097   1.316       .  A
N745        N746   1.322       .  A
N745       Mn749   2.203   1_554  S
N746       C1107   1.353       .  A
N747       N1095   1.315   1_545  A
N747        N748   1.318       .  A
N747       Mn750   2.188       .  S
N748       C1106   1.351   1_545  A
Mn749       N900   2.209       .  S
Mn749       N918   2.214       .  S
Mn749     Cl1105   2.560   1_556  S
Mn750       N913   2.198       .  S
Mn750       N920   2.200       .  S
Mn750      Cl928   2.537   1_545  S
Cl751     Mn1103   2.560   1_554  S
Cl751      Mn927   2.537   1_565  S
C752       N1102   1.351       .  A
C752        C778   1.482       .  S
C753       N1100   1.353       .  A
C753       C1113   1.480       .  S
C754        C755   1.399       .  D
C754        C858   1.521   1_655  S
C754        C871   1.549       .  S
C755        C823   1.503       .  S
C755        C842   1.520   1_655  S
C756        C757   1.383       .  D
C756        C791   1.498       .  S
C756        C807   1.510       .  S
C757        C762   1.509       .  S
C757        C775   1.511       .  S
C758       C1113   1.398   1_545  A
C758        C763   1.402       .  A
C758        H765   1.085       .  S
C759       C1107   1.481       .  S
C759       C1112   1.398       .  A
C759        C760   1.414       .  A
C760        C761   1.407       .  A
C760        C767   1.519       .  S
C761        C762   1.412       .  A
C761        H766   1.082       .  S
C762       C1117   1.429       .  A
C763       C1116   1.429       .  A
C763        C764   1.516       .  S
C764       F1122   1.384       .  S
C764       F1123   1.383       .  S
C764        F770   1.367       .  S
C767        F771   1.385       .  S
C767       F1126   1.382       .  S
C767       F1127   1.383       .  S
F768       C1118   1.384       .  S
F769       C1118   1.383       .  S
F772       C1121   1.382       .  S
F773       C1121   1.383       .  S
C774       C1129   1.409   1_565  A
C774        C779   1.404       .  A
C774        H781   1.079       .  S
C775       C1128   1.409       .  A
C775        C776   1.427       .  A
C776        C777   1.409       .  A
C776        C783   1.525       .  S
C777        C778   1.403       .  A
C777        H782   1.083       .  S
C778       C1133   1.414       .  A
C779       C1132   1.414   1_565  A
C779        C780   1.519       .  S
C780       F1138   1.385       .  S
C780       F1139   1.382       .  S
C780        F786   1.384       .  S
C783        F787   1.381       .  S
C783       F1142   1.376       .  S
C783        F789   1.385       .  S
F784       C1134   1.385       .  S
F785       C1134   1.382       .  S
F788       C1137   1.376       .  S
C790        C791   1.402       .  A
C790       C1149   1.404       .  A
C790       H1151   1.083       .  S
C791        C792   1.423       .  A
C792        C793   1.407       .  A
C792        C799   1.517       .  S
C793        C794   1.403       .  A
C793        H798   1.084       .  S
C794       C1072   1.484       .  S
C794       C1149   1.418       .  A
C795       C1144   1.404       .  A
C795       C1148   1.418       .  A
C795        C796   1.517       .  S
C796       F1154   1.382       .  S
C796       F1155   1.383       .  S
C796        F802   1.383       .  S
H797       C1144   1.083       .  S
C799        F803   1.378       .  S
C799       F1158   1.384       .  S
C799       F1159   1.383       .  S
F800       C1150   1.382       .  S
F801       C1150   1.383       .  S
F804       C1153   1.384       .  S
F805       C1153   1.383       .  S
C806        C807   1.406       .  A
C806        C811   1.408       .  A
C806        H813   1.080       .  S
C807       C1162   1.425       .  A
C808       C1161   1.425       .  A
C808        C809   1.403       .  A
C808        C815   1.511       .  S
C809       C1164   1.401       .  A
C809        H814   1.084       .  S
C810       C1163   1.401       .  A
C810        C811   1.424       .  A
C811        C812   1.521       .  S
C812        F816   1.385       .  S
C812       F1171   1.383       .  S
C812        F818   1.383       .  S
C815        F819   1.362       .  S
C815       F1174   1.383       .  S
C815        F821   1.384       .  S
F817       C1166   1.383       .  S
F820       C1169   1.383       .  S
C822        C823   1.401   1_455  A
C822        C827   1.407       .  A
C822        H829   1.074       .  S
C823        C824   1.427       .  A
C824        C825   1.407       .  A
C824        C831   1.525       .  S
C825        C826   1.407   1_655  A
C825        H830   1.084       .  S
C826        C827   1.424       .  A
C827        C828   1.522       .  S
C828        F834   1.384       .  S
C831        F836   1.382       .  S
C831        F837   1.379       .  S
C838        C843   1.411       .  A
C838        H845   1.082       .  S
C839        C840   1.416       .  A
C840        C841   1.404       .  A
C840        C847   1.522       .  S
C841        C842   1.408   1_655  A
C841        H846   1.069       .  S
C843        C844   1.517       .  S
C844        F848   1.385       .  S
C844        F849   1.374       .  S
C844        F850   1.377       .  S
C847        F851   1.383       .  S
C847        F852   1.383       .  S
C847        F853   1.384       .  S
C854        C859   1.414       .  A
C854        H861   1.082       .  S
C855        C856   1.422   1_455  A
C856        C857   1.405       .  A
C856        C863   1.524       .  S
C857        C858   1.403   1_655  A
C857        H862   1.070       .  S
C859        C860   1.512       .  S
C860        F864   1.384       .  S
C860        F865   1.375       .  S
C863        F868   1.383       .  S
C863        F869   1.380       .  S
C870        C871   1.415       .  A
C870        C875   1.406       .  A
C870        H877   1.068       .  S
C872        C873   1.409       .  A
C872        C879   1.523       .  S
C873        H878   1.084       .  S
C874        C875   1.406       .  A
C875        C876   1.519       .  S
C876        F880   1.384       .  S
C876        F881   1.382       .  S
C879        F884   1.378       .  S
C879        F885   1.386       .  S
N886        N887   1.321       .  A
N886       N1246   1.313   1_545  A
N886       Mn915   2.209   1_556  S
N887       C1248   1.358       .  A
N888       N1244   1.314       .  A
N888        N889   1.322       .  A
N888       Mn904   2.204       .  S
N889       C1249   1.356       .  A
N890       N1242   1.314   1_545  A
N890        N891   1.318       .  A
N891        C895   1.351       .  A
N892       N1240   1.313       .  A
N892        N893   1.318       .  A
N893        C894   1.350       .  A
C894       N1241   1.358       .  A
C894        C987   1.493       .  S
C895       N1243   1.356   1_545  A
C895       C1325   1.484       .  S
N896        N897   1.326       .  A
N896       Mn926   2.216       .  S
N897        C905   1.359       .  A
N898        N899   1.317       .  A
N899        C906   1.349       .  A
N900        N901   1.323       .  A
N902        N903   1.313       .  A
N902       Mn904   2.185       .  S
C906       C1051   1.470       .  S
N907        N908   1.322       .  A
N909        N910   1.320       .  A
N909       Mn927   2.202   1_556  S
N911        N912   1.319       .  A
N911       Mn915   2.199   1_556  S
N912        C917   1.353       .  A
N913        N914   1.319       .  A
N914        C916   1.352       .  A
C917       C1016   1.489       .  S
N918        N919   1.322       .  A
N918       N1278   1.315       .  A
N919        C929   1.355       .  A
N920        N921   1.317       .  A
N920       N1276   1.316   1_545  A
N921        C930   1.352   1_545  A
N922       N1274   1.316       .  A
N922        N923   1.322       .  A
N922       Mn926   2.203       .  S
N923       C1284   1.353       .  A
N924       N1272   1.315   1_545  A
N924        N925   1.318       .  A
N924       Mn927   2.188   1_556  S
N925       C1283   1.351   1_545  A
Mn926     Cl1282   2.560       .  S
Cl928     Mn1280   2.560       .  S
C929       N1279   1.351       .  A
C929        C955   1.482       .  S
C930       N1277   1.353       .  A
C930       C1290   1.480       .  S
C931        C932   1.399       .  D
C931       C1035   1.521   1_655  S
C931       C1048   1.549       .  S
C932       C1000   1.503       .  S
C932       C1019   1.520   1_655  S
C933        C934   1.383       .  D
C933        C968   1.498       .  S
C933        C984   1.510       .  S
C934        C939   1.509       .  S
C934        C952   1.511       .  S
C935       C1290   1.398   1_545  A
C935        C940   1.402       .  A
C935        H942   1.085       .  S
C936       C1284   1.480       .  S
C936       C1289   1.398       .  A
C936        C937   1.414       .  A
C937        C938   1.407       .  A
C937        C944   1.519       .  S
C938        C939   1.412       .  A
C938        H943   1.082       .  S
C939       C1294   1.429       .  A
C940       C1293   1.429       .  A
C940        C941   1.516       .  S
C941       F1299   1.384       .  S
C941       F1300   1.383       .  S
C941        F947   1.367       .  S
C944        F948   1.385       .  S
C944       F1303   1.382       .  S
C944       F1304   1.383       .  S
F945       C1295   1.384       .  S
F946       C1295   1.383       .  S
F949       C1298   1.382       .  S
F950       C1298   1.383       .  S
C951       C1306   1.409   1_565  A
C951        C956   1.404       .  A
C951        H958   1.079       .  S
C952       C1305   1.409       .  A
C952        C953   1.427       .  A
C953        C954   1.409       .  A
C953        C960   1.525       .  S
C954        C955   1.403       .  A
C954        H959   1.083       .  S
C955       C1310   1.414       .  A
C956       C1309   1.414   1_565  A
C956        C957   1.519       .  S
C957       F1315   1.385       .  S
C957       F1316   1.382       .  S
C957        F963   1.384       .  S
C960        F964   1.381       .  S
C960       F1319   1.376       .  S
C960        F966   1.385       .  S
F961       C1311   1.385       .  S
F962       C1311   1.382       .  S
F965       C1314   1.376       .  S
C967        C968   1.402       .  A
C967       C1326   1.404       .  A
C967       H1328   1.083       .  S
C968        C969   1.423       .  A
C969        C970   1.407       .  A
C969        C976   1.517       .  S
C970        C971   1.403       .  A
C970        H975   1.084       .  S
C971       C1249   1.484       .  S
C971       C1326   1.418       .  A
C972       C1321   1.404       .  A
C972       C1325   1.418       .  A
C972        C973   1.517       .  S
C973       F1331   1.382       .  S
C973       F1332   1.383       .  S
C973        F979   1.383       .  S
H974       C1321   1.083       .  S
C976        F980   1.378       .  S
C976       F1335   1.384       .  S
C976       F1336   1.383       .  S
F977       C1327   1.382       .  S
F978       C1327   1.383       .  S
F981       C1330   1.384       .  S
F982       C1330   1.383       .  S
C983        C984   1.406       .  A
C983        C988   1.408       .  A
C983        H990   1.080       .  S
C984       C1339   1.425       .  A
C985       C1338   1.425       .  A
C985        C986   1.403       .  A
C985        C992   1.511       .  S
C986       C1341   1.401       .  A
C986        H991   1.084       .  S
C987       C1340   1.401       .  A
C987        C988   1.424       .  A
C988        C989   1.521       .  S
C989        F993   1.385       .  S
C989       F1348   1.383       .  S
C989        F995   1.383       .  S
C992        F996   1.362       .  S
C992       F1351   1.383       .  S
C992        F998   1.384       .  S
F994       C1343   1.383       .  S
F997       C1346   1.383       .  S
C999       C1000   1.401   1_455  A
C999       C1004   1.407       .  A
C999       H1006   1.074       .  S
C1000      C1001   1.427       .  A
C1001      C1002   1.407       .  A
C1001      C1008   1.525       .  S
C1002      C1003   1.407   1_655  A
C1002      H1007   1.084       .  S
C1003      C1004   1.424       .  A
C1004      C1005   1.522       .  S
C1005      F1011   1.384       .  S
C1008      F1013   1.382       .  S
C1008      F1014   1.379       .  S
C1015      C1020   1.411       .  A
C1015      H1022   1.082       .  S
C1016      C1017   1.416       .  A
C1017      C1018   1.404       .  A
C1017      C1024   1.522       .  S
C1018      C1019   1.408   1_655  A
C1018      H1023   1.069       .  S
C1020      C1021   1.517       .  S
C1021      F1025   1.385       .  S
C1021      F1026   1.374       .  S
C1021      F1027   1.377       .  S
C1024      F1028   1.383       .  S
C1024      F1029   1.383       .  S
C1024      F1030   1.384       .  S
C1031      C1036   1.414       .  A
C1031      H1038   1.082       .  S
C1032      C1033   1.422   1_455  A
C1033      C1034   1.405       .  A
C1033      C1040   1.524       .  S
C1034      C1035   1.403   1_655  A
C1034      H1039   1.070       .  S
C1036      C1037   1.512       .  S
C1037      F1041   1.384       .  S
C1037      F1042   1.375       .  S
C1040      F1045   1.383       .  S
C1040      F1046   1.380       .  S
C1047      C1048   1.415       .  A
C1047      C1052   1.406       .  A
C1047      H1054   1.068       .  S
C1049      C1050   1.409       .  A
C1049      C1056   1.523       .  S
C1050      H1055   1.084       .  S
C1051      C1052   1.406       .  A
C1052      C1053   1.519       .  S
C1053      F1057   1.384       .  S
C1053      F1058   1.382       .  S
C1056      F1061   1.378       .  S
C1056      F1062   1.386       .  S
N1063      N1064   1.321       .  A
N1063     Mn1092   2.209       .  S
N1065      N1066   1.322       .  A
N1065     Mn1081   2.204       .  S
N1067      N1068   1.318       .  A
N1067     Mn1269   2.194       .  S
N1068      C1072   1.351       .  A
N1069      N1070   1.318       .  A
N1069     Mn1258   2.187       .  S
N1070      C1071   1.350   1_565  A
C1071      C1164   1.493       .  S
N1073      N1074   1.326       .  A
N1073     Mn1103   2.216   1_554  S
N1074      C1082   1.359       .  A
N1075      N1076   1.317       .  A
N1075     Mn1258   2.194       .  S
N1076      C1083   1.349       .  A
N1077      N1078   1.323       .  A
N1077     Mn1280   2.209       .  S
N1079      N1080   1.313       .  A
N1079     Mn1081   2.185       .  S
Mn1081     N1246   2.187   1_554  S
Mn1081     N1252   2.194   1_554  S
C1083      C1228   1.470       .  S
N1084      N1085   1.322       .  A
N1084     Mn1269   2.207       .  S
N1086      N1087   1.320       .  A
N1086     Mn1104   2.202       .  S
N1088      N1089   1.319       .  A
N1088     Mn1092   2.199       .  S
N1089      C1094   1.353       .  A
N1090      N1091   1.319       .  A
N1090     Mn1281   2.198       .  S
N1091      C1093   1.352       .  A
Mn1092     N1244   2.194       .  S
Mn1092     N1261   2.208       .  S
C1094      C1193   1.489       .  S
N1095      N1096   1.322       .  A
N1095     Mn1280   2.214       .  S
N1096      C1106   1.355       .  A
N1097      N1098   1.317       .  A
N1097     Mn1281   2.200       .  S
N1098      C1107   1.352       .  A
N1099      N1100   1.322       .  A
N1099     Mn1103   2.203   1_554  S
N1101      N1102   1.318       .  A
N1101     Mn1104   2.188       .  S
Mn1103     N1254   2.209       .  S
Mn1103     N1272   2.214       .  S
Mn1104     N1267   2.198       .  S
Mn1104     N1274   2.200       .  S
Mn1104    Cl1282   2.537       .  S
Cl1105    Mn1281   2.537       .  S
C1106      C1132   1.482   1_565  S
C1108      C1109   1.399       .  D
C1108      C1212   1.521   1_655  S
C1108      C1225   1.549       .  S
C1109      C1177   1.503       .  S
C1109      C1196   1.520   1_655  S
C1110      C1111   1.383       .  D
C1110      C1145   1.498       .  S
C1110      C1161   1.510       .  S
C1111      C1116   1.509       .  S
C1111      C1129   1.511       .  S
C1112      C1117   1.402       .  A
C1112      H1119   1.085       .  S
C1113      C1114   1.414       .  A
C1114      C1115   1.407       .  A
C1114      C1121   1.519       .  S
C1115      C1116   1.412   1_565  A
C1115      H1120   1.082       .  S
C1117      C1118   1.516       .  S
C1118      F1124   1.367       .  S
C1121      F1125   1.385       .  S
C1128      C1133   1.404       .  A
C1128      H1135   1.079       .  S
C1129      C1130   1.427       .  A
C1130      C1131   1.409       .  A
C1130      C1137   1.525       .  S
C1131      C1132   1.403       .  A
C1131      H1136   1.083       .  S
C1133      C1134   1.519       .  S
C1134      F1140   1.384       .  S
C1137      F1141   1.381       .  S
C1137      F1143   1.385       .  S
C1144      C1145   1.402       .  A
C1145      C1146   1.423   1_545  A
C1146      C1147   1.407       .  A
C1146      C1153   1.517       .  S
C1147      C1148   1.403   1_565  A
C1147      H1152   1.084       .  S
C1149      C1150   1.517       .  S
C1150      F1156   1.383       .  S
C1153      F1157   1.378       .  S
C1160      C1161   1.406   1_565  A
C1160      C1165   1.408       .  A
C1160      H1167   1.080       .  S
C1162      C1163   1.403       .  A
C1162      C1169   1.511       .  S
C1163      H1168   1.084       .  S
C1164      C1165   1.424   1_545  A
C1165      C1166   1.521       .  S
C1166      F1170   1.385       .  S
C1166      F1172   1.383       .  S
C1169      F1173   1.362       .  S
C1169      F1175   1.384       .  S
C1176      C1177   1.401   1_455  A
C1176      C1181   1.407       .  A
C1176      H1183   1.074       .  S
C1177      C1178   1.427       .  A
C1178      C1179   1.407       .  A
C1178      C1185   1.525       .  S
C1179      C1180   1.407   1_655  A
C1179      H1184   1.084       .  S
C1180      C1181   1.424       .  A
C1181      C1182   1.522       .  S
C1182      F1188   1.384       .  S
C1185      F1190   1.382       .  S
C1185      F1191   1.379       .  S
C1192      C1197   1.411       .  A
C1192      H1199   1.082       .  S
C1193      C1194   1.416       .  A
C1194      C1195   1.404       .  A
C1194      C1201   1.522       .  S
C1195      C1196   1.408   1_655  A
C1195      H1200   1.069       .  S
C1197      C1198   1.517       .  S
C1198      F1202   1.385       .  S
C1198      F1203   1.374       .  S
C1198      F1204   1.377       .  S
C1201      F1205   1.383       .  S
C1201      F1206   1.383       .  S
C1201      F1207   1.384       .  S
C1208      C1213   1.414       .  A
C1208      H1215   1.082       .  S
C1209      C1210   1.422   1_455  A
C1210      C1211   1.405       .  A
C1210      C1217   1.524       .  S
C1211      C1212   1.403   1_655  A
C1211      H1216   1.070       .  S
C1213      C1214   1.512       .  S
C1214      F1218   1.384       .  S
C1214      F1219   1.375       .  S
C1217      F1222   1.383       .  S
C1217      F1223   1.380       .  S
C1224      C1225   1.416       .  A
C1224      C1229   1.406       .  A
C1224      H1231   1.068       .  S
C1226      C1227   1.409       .  A
C1226      C1233   1.523       .  S
C1227      H1232   1.084       .  S
C1228      C1229   1.406       .  A
C1229      C1230   1.519       .  S
C1230      F1234   1.384       .  S
C1230      F1235   1.382       .  S
C1233      F1238   1.378       .  S
C1233      F1239   1.386       .  S
N1240      N1241   1.321       .  A
N1240     Mn1269   2.209   1_556  S
N1242      N1243   1.322       .  A
N1242     Mn1258   2.204       .  S
N1244      N1245   1.318       .  A
N1245      C1249   1.351       .  A
N1246      N1247   1.318       .  A
N1247      C1248   1.350   1_565  A
C1248      C1341   1.493       .  S
N1250      N1251   1.326       .  A
N1250     Mn1280   2.216       .  S
N1251      C1259   1.359       .  A
N1252      N1253   1.317       .  A
N1253      C1260   1.349       .  A
N1254      N1255   1.323       .  A
N1256      N1257   1.313       .  A
N1256     Mn1258   2.185       .  S
C1260      C1405   1.470       .  S
N1261      N1262   1.322       .  A
N1263      N1264   1.320       .  A
N1263     Mn1281   2.202   1_556  S
N1265      N1266   1.319       .  A
N1265     Mn1269   2.199   1_556  S
N1266      C1271   1.353       .  A
N1267      N1268   1.319       .  A
N1268      C1270   1.352       .  A
C1271      C1370   1.489       .  S
N1272      N1273   1.322       .  A
N1273      C1283   1.355       .  A
N1274      N1275   1.317       .  A
N1275      C1284   1.352       .  A
N1276      N1277   1.322       .  A
N1276     Mn1280   2.203       .  S
N1278      N1279   1.318       .  A
N1278     Mn1281   2.188   1_556  S
C1283      C1309   1.482   1_565  S
C1285      C1286   1.399       .  D
C1285      C1389   1.521   1_655  S
C1285      C1402   1.549       .  S
C1286      C1354   1.503       .  S
C1286      C1373   1.520   1_655  S
C1287      C1288   1.383       .  D
C1287      C1322   1.498       .  S
C1287      C1338   1.510       .  S
C1288      C1293   1.509       .  S
C1288      C1306   1.511       .  S
C1289      C1294   1.402       .  A
C1289      H1296   1.085       .  S
C1290      C1291   1.414       .  A
C1291      C1292   1.407       .  A
C1291      C1298   1.519       .  S
C1292      C1293   1.412   1_565  A
C1292      H1297   1.082       .  S
C1294      C1295   1.516       .  S
C1295      F1301   1.367       .  S
C1298      F1302   1.385       .  S
C1305      C1310   1.404       .  A
C1305      H1312   1.079       .  S
C1306      C1307   1.427       .  A
C1307      C1308   1.409       .  A
C1307      C1314   1.525       .  S
C1308      C1309   1.403       .  A
C1308      H1313   1.083       .  S
C1310      C1311   1.519       .  S
C1311      F1317   1.384       .  S
C1314      F1318   1.381       .  S
C1314      F1320   1.385       .  S
C1321      C1322   1.402       .  A
C1322      C1323   1.423   1_545  A
C1323      C1324   1.407       .  A
C1323      C1330   1.517       .  S
C1324      C1325   1.403   1_565  A
C1324      H1329   1.084       .  S
C1326      C1327   1.517       .  S
C1327      F1333   1.383       .  S
C1330      F1334   1.378       .  S
C1337      C1338   1.406   1_565  A
C1337      C1342   1.408       .  A
C1337      H1344   1.080       .  S
C1339      C1340   1.403       .  A
C1339      C1346   1.511       .  S
C1340      H1345   1.084       .  S
C1341      C1342   1.424   1_545  A
C1342      C1343   1.521       .  S
C1343      F1347   1.385       .  S
C1343      F1349   1.383       .  S
C1346      F1350   1.362       .  S
C1346      F1352   1.384       .  S
C1353      C1354   1.401   1_455  A
C1353      C1358   1.407       .  A
C1353      H1360   1.074       .  S
C1354      C1355   1.427       .  A
C1355      C1356   1.407       .  A
C1355      C1362   1.525       .  S
C1356      C1357   1.407   1_655  A
C1356      H1361   1.084       .  S
C1357      C1358   1.424       .  A
C1358      C1359   1.522       .  S
C1359      F1365   1.384       .  S
C1362      F1367   1.382       .  S
C1362      F1368   1.379       .  S
C1369      C1374   1.411       .  A
C1369      H1376   1.082       .  S
C1370      C1371   1.416       .  A
C1371      C1372   1.404       .  A
C1371      C1378   1.522       .  S
C1372      C1373   1.408   1_655  A
C1372      H1377   1.069       .  S
C1374      C1375   1.517       .  S
C1375      F1379   1.385       .  S
C1375      F1380   1.374       .  S
C1375      F1381   1.377       .  S
C1378      F1382   1.383       .  S
C1378      F1383   1.383       .  S
C1378      F1384   1.384       .  S
C1385      C1390   1.414       .  A
C1385      H1392   1.082       .  S
C1386      C1387   1.422   1_455  A
C1387      C1388   1.405       .  A
C1387      C1394   1.524       .  S
C1388      C1389   1.403   1_655  A
C1388      H1393   1.070       .  S
C1390      C1391   1.512       .  S
C1391      F1395   1.384       .  S
C1391      F1396   1.375       .  S
C1394      F1399   1.383       .  S
C1394      F1400   1.380       .  S
C1401      C1402   1.416       .  A
C1401      C1406   1.406       .  A
C1401      H1408   1.068       .  S
C1403      C1404   1.409       .  A
C1403      C1410   1.523       .  S
C1404      H1409   1.084       .  S
C1405      C1406   1.406       .  A
C1406      C1407   1.519       .  S
C1407      F1411   1.384       .  S
C1407      F1412   1.382       .  S
C1410      F1415   1.378       .  S
C1410      F1416   1.386       .  S
