geometry optimzed in LAMMPS
_audit_creation_date              2020-12-01 
_audit_creation_method            'lammps2cif' 
_symmetry_space_group_name_H-M    'P1' 
_symmetry_Int_Tables_number       1 
_symmetry_cell_setting            triclinic 
loop_ 
_symmetry_equiv_pos_as_xyz 
  x,y,z 
_cell_length_a                    41.43070666 
_cell_length_b                    39.22742404266664 
_cell_length_c                    68.63883131546149 
_cell_angle_alpha                 90.65499617596583 
_cell_angle_beta                  90.08161550719403 
_cell_angle_gamma                 89.81996130030848 
loop_ 
_atom_site_label 
_atom_site_type_symbol 
_atom_site_fract_x 
_atom_site_fract_y 
_atom_site_fract_z 
_atom_site_charge 
N1          N  0.43576690  0.51092280  0.49696527    -0.37200
N2          N  0.98667771  0.50563627  0.46950089    -0.57700
N3          N  0.03468154  0.01248352  0.49944641    -0.37200
N4          N  0.98457346  0.02083798  0.52889853    -0.57700
C5          C  0.41737193  0.51493584  0.48083291     0.26400
C6          C  0.41655922  0.02139983  0.51249817     0.26400
C7          C  0.05396019  0.51051489  0.48440715     0.26400
C8          C  0.05251546  0.02276324  0.51495378     0.26400
C9          C  0.45866572  0.50002379  0.45556939     0.35000
C10         C  0.01293087  0.49535209  0.45926030     0.35000
C11         C  0.45787917  0.01498829  0.53859136     0.35000
C12         C  0.01044478  0.01820817  0.54078917     0.35000
C13         C  0.38670572  0.52562872  0.48631539    -0.22400
C14         C  0.38598688  0.03037269  0.50604337    -0.22400
C15         C  0.08444568  0.52156662  0.48985072    -0.22400
C16         C  0.08310996  0.03184663  0.50866291    -0.22400
C17         C  0.46778954  0.48714617  0.43748281    -0.23500
C18         C  0.00356667  0.48176377  0.44142314    -0.23500
C19         C  0.46766719  0.00959639  0.55762108    -0.23500
C20         C  0.00040584  0.01400469  0.55986857    -0.23500
C21         C  0.42633539  0.50524692  0.46162092    -0.18800
C22         C  0.42546478  0.01848028  0.53239690    -0.18800
C23         C  0.04291177  0.02153973  0.53477783    -0.18800
C24         C  0.04532339  0.49957861  0.46537333    -0.18800
H25         H  0.36610989  0.53016631  0.47699915     0.14100
H26         H  0.36530139  0.03752484  0.51481154     0.14100
H27         H  0.10531805  0.52484803  0.48062561     0.14100
H28         H  0.10314520  0.04065852  0.51749061     0.14100
H29         H  0.45224852  0.47965703  0.42550311     0.12300
H30         H  0.01892967  0.47194155  0.42990983     0.12300
H31         H  0.45247394  0.00581378  0.57022210     0.12300
H32         H  0.01540975  0.01161054  0.57270327     0.12300
H33         H  0.45804336  0.49882830  0.49738347     0.25600
H34         H  0.01250314  0.00018209  0.50007658     0.25600
N35         N  0.03717760  0.24971296  0.50172618    -0.37200
N36         N  0.48750343  0.22873369  0.52661955    -0.57700
N37         N  0.43907876  0.24673442  0.49793725    -0.37200
N38         N  0.48832655  0.26348002  0.46938728    -0.57700
C39         C  0.05540154  0.23310052  0.51500469     0.26400
C40         C  0.05528045  0.25287550  0.48545419     0.26400
C41         C  0.42022381  0.23131456  0.51129544     0.26400
C42         C  0.42089749  0.25133589  0.48178215     0.26400
C43         C  0.01440968  0.22773251  0.54136533     0.35000
C44         C  0.46112601  0.22452830  0.53782011     0.35000
C45         C  0.01470614  0.28085822  0.46420025     0.35000
C46         C  0.46243634  0.27737316  0.46045556     0.35000
C47         C  0.08546513  0.22581913  0.50703178    -0.22400
C48         C  0.08530444  0.23810724  0.48840354    -0.22400
C49         C  0.38958022  0.22652103  0.50352535    -0.22400
C50         C  0.39010810  0.23881977  0.48492394    -0.22400
C51         C  0.00489320  0.22109358  0.56029096    -0.23500
C52         C  0.47029985  0.21866379  0.55694245    -0.23500
C53         C  0.00534138  0.30291416  0.44959886    -0.23500
C54         C  0.47239921  0.29907263  0.44586862    -0.23500
C55         C  0.04650649  0.22619323  0.53450948    -0.18800
C56         C  0.04687551  0.27202133  0.46883085    -0.18800
C57         C  0.43002186  0.26988271  0.46508501    -0.18800
C58         C  0.42915082  0.22307799  0.53066708    -0.18800
H59         H  0.10578259  0.21350350  0.51396209     0.14100
H60         H  0.10537465  0.23709424  0.47833050     0.14100
H61         H  0.36862484  0.21590398  0.51057533     0.14100
H62         H  0.36976842  0.23937512  0.47501633     0.14100
H63         H  0.02022330  0.21556775  0.57264723     0.12300
H64         H  0.45481997  0.21332066  0.56921163     0.12300
H65         H  0.02083182  0.31713932  0.43997643     0.12300
H66         H  0.45730182  0.31366006  0.43612403     0.12300
H67         H  0.01551556  0.26224565  0.50445670     0.25600
H68         H  0.46167256  0.25740099  0.50047794     0.25600
N69         N  0.27492299  0.32223097  0.40658618    -0.06700
N70         N  0.30036115  0.30261703  0.41015994    -0.58800
N71         N  0.20042812  0.34789273  0.41973906    -0.06300
N72         N  0.17663274  0.34657897  0.43232669    -0.60900
N73         N  0.19932812  0.32193931  0.40749565    -0.05900
N74         N  0.17440369  0.30220183  0.41175390    -0.58800
N75         N  0.27442539  0.34821058  0.41884336    -0.05600
N76         N  0.29921325  0.34696778  0.43079281    -0.61300
C77         C  0.31516443  0.31834226  0.42551019     0.95500
C78         C  0.16064396  0.31789444  0.42749371     0.95300
N79         N  0.19764591  0.44876887  0.40335374    -0.06900
N80         N  0.17135420  0.46789687  0.40533283    -0.59400
N81         N  0.27345968  0.42684313  0.41658774    -0.05000
N82         N  0.29904530  0.43056580  0.42775956    -0.60600
N83         N  0.27328748  0.44949108  0.40266707    -0.06900
N84         N  0.29906251  0.46929669  0.40409406    -0.59600
N85         N  0.19910571  0.42627467  0.41736033    -0.04600
N86         N  0.17413279  0.42943638  0.42908536    -0.60700
Mn87       Mn  0.23690902  0.38733723  0.41858228     1.18400
C88         C  0.15683214  0.45525108  0.42144245     0.97600
C89         C  0.31499162  0.45687136  0.41979038     0.98300
N90         N  0.19938040  0.31475319  0.36081546    -0.06900
N91         N  0.18231454  0.28753339  0.35599968    -0.63200
N92         N  0.27157356  0.33692641  0.34581956    -0.05700
N93         N  0.28792335  0.32504699  0.33067830    -0.63900
N94         N  0.27206816  0.31452710  0.36000199    -0.06400
N95         N  0.28882568  0.28725113  0.35460023    -0.63500
N96         N  0.19913193  0.33678434  0.34642405    -0.05300
N97         N  0.18220313  0.32453136  0.33161770    -0.64200
Mn98       Mn  0.23641021  0.31741992  0.38399697     1.10700
C99         C  0.17127426  0.29408391  0.33786503     0.98800
C100        C  0.29873260  0.29407756  0.33625336     0.98900
N101        N  0.27149608  0.44421352  0.35706027    -0.06400
N102        N  0.29173336  0.46826774  0.35178979    -0.61800
N103        N  0.19812874  0.41962564  0.34413426    -0.05700
N104        N  0.17893706  0.42772743  0.32945346    -0.58500
N105        N  0.19811555  0.44442752  0.35724764    -0.07000
N106        N  0.17879998  0.46938221  0.35181232    -0.61400
N107        N  0.27164170  0.41903355  0.34422473    -0.06000
N108        N  0.29185978  0.42582613  0.32996525    -0.58500
Mn109      Mn  0.23503554  0.44774523  0.38016704     1.20200
Mn110      Mn  0.23505597  0.37824872  0.34488014     1.10100
Cl111      Cl  0.23577016  0.38258917  0.38178577    -0.86500
C112        C  0.30433498  0.45664265  0.33479746     0.95800
C113        C  0.16681392  0.45878064  0.33447874     0.95600
N114        N  0.27817748  0.17809272  0.59431131    -0.06700
N115        N  0.30444579  0.19638324  0.59131151    -0.58800
N116        N  0.20263534  0.15735480  0.58133821    -0.06300
N117        N  0.17768020  0.15989648  0.56960556    -0.60900
N118        N  0.20271162  0.18230685  0.59424251    -0.05900
N119        N  0.17729881  0.20234454  0.59154409    -0.58800
N120        N  0.27649783  0.15305389  0.58147166    -0.05600
N121        N  0.30128553  0.15381398  0.56951835    -0.61300
C122        C  0.31857152  0.18103036  0.57567741     0.95500
C123        C  0.16199645  0.18806655  0.57595056     0.95300
N124        N  0.19706435  0.05600310  0.59707445    -0.06900
N125        N  0.16993564  0.03836514  0.59582968    -0.59400
N126        N  0.27241409  0.07406801  0.58264795    -0.05000
N127        N  0.29639362  0.06840080  0.57046639    -0.60600
N128        N  0.27241932  0.05137881  0.59656887    -0.06900
N129        N  0.29676033  0.02971936  0.59412905    -0.59600
N130        N  0.19800759  0.07912993  0.58338197    -0.04600
N131        N  0.17157936  0.07808120  0.57267322    -0.60700
Mn132      Mn  0.23746659  0.11586614  0.58165702     1.18400
C133        C  0.15435713  0.05259036  0.58056737     0.97600
C134        C  0.31117102  0.04044491  0.57753808     0.98300
N135        N  0.20420822  0.18769367  0.64023625    -0.06900
N136        N  0.18705878  0.21501523  0.64476950    -0.63200
N137        N  0.27610308  0.16216295  0.65471183    -0.05700
N138        N  0.29427031  0.17265726  0.66942668    -0.63900
N139        N  0.27714624  0.18447549  0.64052584    -0.06400
N140        N  0.29610642  0.21023660  0.64540722    -0.63500
N141        N  0.20304968  0.16541220  0.65443577    -0.05300
N142        N  0.18512424  0.17751145  0.66886771    -0.64200
Mn143      Mn  0.24064542  0.18406684  0.61709336     1.10700
C144        C  0.17492322  0.20832685  0.66257549     0.98800
C145        C  0.30680042  0.20265484  0.66349439     0.98900
N146        N  0.27213513  0.05521604  0.64287203    -0.06400
N147        N  0.29119366  0.02986733  0.64809860    -0.61800
N148        N  0.19980424  0.08310813  0.65609338    -0.05700
N149        N  0.18063901  0.07536291  0.67075594    -0.58500
N150        N  0.19868596  0.05882059  0.64272726    -0.07000
N151        N  0.17841805  0.03475379  0.64794170    -0.61400
N152        N  0.27309875  0.07996034  0.65600376    -0.06000
N153        N  0.29270506  0.07162046  0.67037671    -0.58500
Mn154      Mn  0.23517116  0.05433326  0.61970124     1.20200
Mn155      Mn  0.23799090  0.12258694  0.65566806     1.10100
Cl156      Cl  0.23792554  0.11924078  0.61864352    -0.86500
C157        C  0.30403558  0.04037026  0.66528251     0.95800
C158        C  0.16701126  0.04525313  0.66543591     0.95600
N159        N  0.19456316  0.50330169  0.99759012    -0.37200
N160        N  0.23965603  0.47838774  0.02595936    -0.57700
N161        N  0.29114808  0.48728786  0.99696578    -0.37200
N162        N  0.24608892  0.01274907  0.96879820    -0.57700
C163        C  0.17598748  0.50263762  0.01378693     0.26400
C164        C  0.17872492  0.01945331  0.98269847     0.26400
C165        C  0.30811963  0.48227942  0.01353630     0.26400
C166        C  0.31153259  0.00357995  0.98486022     0.26400
C167        C  0.21209779  0.46868284  0.03477194     0.35000
C168        C  0.26385357  0.46156121  0.03482890     0.35000
C169        C  0.22089020  0.01853096  0.95680252     0.35000
C170        C  0.27296889  0.01342392  0.95771984     0.35000
C171        C  0.14838801  0.52194879  0.01091867    -0.22400
C172        C  0.14949493  0.03098482  0.99022097    -0.22400
C173        C  0.33973601  0.49278553  0.01092842    -0.22400
C174        C  0.34119737  0.00852480  0.99387362    -0.22400
C175        C  0.21880093  0.44576930  0.04945565    -0.23500
C176        C  0.25177354  0.44141395  0.04958121    -0.23500
C177        C  0.23176413  0.02290662  0.93790384    -0.23500
C178        C  0.26488128  0.01986460  0.93851150    -0.23500
C179        C  0.18134200  0.48184012  0.03017071    -0.18800
C180        C  0.18886494  0.02386751  0.96317388    -0.18800
C181        C  0.30466174  0.01205115  0.96525446    -0.18800
C182        C  0.29676744  0.46572409  0.03038732    -0.18800
H183        H  0.12855028  0.52578678  0.02096083     0.14100
H184        H  0.13104044  0.04565591  0.98292936     0.14100
H185        H  0.35936133  0.49158911  0.02132705     0.14100
H186        H  0.36276743  0.01952443  0.98773013     0.14100
H187        H  0.20181087  0.43379568  0.05916911     0.12300
H188        H  0.26530423  0.42531816  0.05937972     0.12300
H189        H  0.21747636  0.02902627  0.92519453     0.12300
H190        H  0.28117236  0.02294923  0.92635063     0.12300
H191        H  0.21418541  0.48740523  0.99468648     0.25600
H192        H  0.26800167  0.47816324  0.99413372     0.25600
N193        N  0.19435546  0.23799262  0.00183150    -0.37200
N194        N  0.24269600  0.22622057  0.97204322    -0.57700
N195        N  0.29164488  0.23213706  0.00206612    -0.37200
N196        N  0.24352662  0.24016548  0.03250060    -0.57700
C197        C  0.17553728  0.22729800  0.98679278     0.26400
C198        C  0.17598775  0.23774656  0.01812276     0.26400
C199        C  0.30967864  0.22193224  0.98665844     0.26400
C200        C  0.30983525  0.22788654  0.01824157     0.26400
C201        C  0.21659810  0.22966545  0.96041591     0.35000
C202        C  0.26883186  0.22947597  0.96049303     0.35000
C203        C  0.21810801  0.25271154  0.04266071     0.35000
C204        C  0.27024575  0.24784129  0.04301487     0.35000
C205        C  0.14495987  0.21979701  0.99373488    -0.22400
C206        C  0.14511458  0.22689764  0.01341409    -0.22400
C207        C  0.33952229  0.21055733  0.99314553    -0.22400
C208        C  0.33965694  0.21447829  0.01308169    -0.22400
C209        C  0.22618212  0.23456656  0.94131317    -0.23500
C210        C  0.25933413  0.23460261  0.94137595    -0.23500
C211        C  0.22858800  0.26709579  0.06008176    -0.23500
C212        C  0.26167981  0.26407250  0.06028443    -0.23500
C213        C  0.18427730  0.22723408  0.96677337    -0.18800
C214        C  0.18549219  0.25024028  0.03669257    -0.18800
C215        C  0.30226778  0.24110659  0.03692891    -0.18800
C216        C  0.30106099  0.22579178  0.96684346    -0.18800
H217        H  0.12430919  0.21114680  0.98539112     0.14100
H218        H  0.12466738  0.22470568  0.02310348     0.14100
H219        H  0.35954245  0.20149811  0.98436980     0.14100
H220        H  0.35985067  0.20936899  0.02264870     0.14100
H221        H  0.21091532  0.23795426  0.92867199     0.12300
H222        H  0.27465325  0.23778639  0.92877298     0.12300
H223        H  0.21394121  0.27873262  0.07139722     0.12300
H224        H  0.27761327  0.27317640  0.07170305     0.12300
H225        H  0.21683309  0.24937558  0.00072021     0.25600
H226        H  0.27054459  0.24640490  0.00127268     0.25600
N227        N  0.45471276  0.19622187  0.90386167    -0.06700
N228        N  0.42852095  0.21540819  0.90558627    -0.58800
N229        N  0.53002831  0.17554200  0.91776113    -0.06300
N230        N  0.05725347  0.17290377  0.92775340    -0.60900
N231        N  0.52995756  0.19833781  0.90389388    -0.05900
N232        N  0.05743275  0.21197116  0.90422508    -0.58800
N233        N  0.45560188  0.17333605  0.91766881    -0.05600
N234        N  0.43015076  0.17615233  0.92902733    -0.61300
C235        C  0.41365244  0.20252860  0.92142251     0.95500
C236        C  0.07324962  0.19921881  0.91986198     0.95300
N237        N  0.53365214  0.07225911  0.90695674    -0.06900
N238        N  0.05735481  0.04775916  0.90813560    -0.59400
N239        N  0.45824178  0.09459153  0.91964560    -0.05000
N240        N  0.43388564  0.09208138  0.93179052    -0.60600
N241        N  0.45818880  0.06917990  0.90700596    -0.06900
N242        N  0.43346735  0.04872261  0.91049778    -0.59600
N243        N  0.53230090  0.09746906  0.91968419    -0.04600
N244        N  0.05729243  0.09077593  0.92975505    -0.60700
Mn245      Mn  0.49394787  0.13527826  0.91925452     1.18400
C246        C  0.07342527  0.06309136  0.92304902     0.97600
C247        C  0.41838931  0.06353413  0.92606272     0.98300
N248        N  0.02817278  0.18873321  0.85693704    -0.06900
N249        N  0.04699276  0.21368859  0.85118326    -0.63200
N250        N  0.45646167  0.16776645  0.84481241    -0.05700
N251        N  0.43747574  0.17583602  0.83005438    -0.63900
N252        N  0.45569120  0.19220895  0.85812011    -0.06400
N253        N  0.43603028  0.21677916  0.85272002    -0.63500
N254        N  0.02723319  0.16424013  0.84366291    -0.05300
N255        N  0.04519934  0.17251920  0.82854211    -0.64200
Mn256      Mn  0.49224004  0.19644616  0.88114541     1.10700
C257        C  0.05765096  0.20331083  0.83350208     0.98800
C258        C  0.42458180  0.20645529  0.83519746     0.98900
N259        N  0.46057805  0.06251724  0.86019771    -0.06400
N260        N  0.44544216  0.03435474  0.85473033    -0.61800
N261        N  0.02772299  0.08240785  0.84629714    -0.05700
N262        N  0.04655159  0.07185868  0.83193760    -0.58500
N263        N  0.02791979  0.06002579  0.86045810    -0.07000
N264        N  0.04679750  0.03398363  0.85590005    -0.61400
N265        N  0.45994605  0.08496050  0.84602045    -0.06000
N266        N  0.44422502  0.07222918  0.83081617    -0.58500
Mn267      Mn  0.49624717  0.06658521  0.88407455     1.20200
Mn268      Mn  0.49468673  0.12806774  0.84538893     1.10100
Cl269      Cl  0.49408800  0.13151305  0.88234384    -0.86500
C270        C  0.43493602  0.04079149  0.83645906     0.95800
C271        C  0.05823454  0.04151375  0.83802200     0.95600
N272        N  0.13769752  0.37605340  0.72433944    -0.37200
N273        N  0.12245300  0.42653263  0.75399988    -0.57700
N274        N  0.11027685  0.37298310  0.78194683    -0.37200
N275        N  0.12322368  0.32261801  0.75148667    -0.57700
C276        C  0.13510809  0.40430071  0.71332803     0.26400
C277        C  0.13660205  0.34875020  0.71215071     0.26400
C278        C  0.09728620  0.40039123  0.79119284     0.26400
C279        C  0.09647745  0.34483941  0.78948557     0.26400
C280        C  0.13487520  0.44707494  0.74024637     0.35000
C281        C  0.12177820  0.44502678  0.77071025     0.35000
C282        C  0.13736646  0.30384455  0.73726347     0.35000
C283        C  0.12124022  0.30224276  0.76712843     0.35000
C284        C  0.13253500  0.39485669  0.69385595    -0.22400
C285        C  0.13349733  0.35973249  0.69311212    -0.22400
C286        C  0.07518349  0.38954427  0.80494513    -0.22400
C287        C  0.07472345  0.35440791  0.80388854    -0.22400
C288        C  0.14216923  0.47872018  0.74822637    -0.23500
C289        C  0.13405363  0.47736574  0.76756684    -0.23500
C290        C  0.14471707  0.27152249  0.74396314    -0.23500
C291        C  0.13432037  0.27045824  0.76290947    -0.23500
C292        C  0.13790551  0.43822993  0.72034185    -0.18800
C293        C  0.14042421  0.31440235  0.71778796    -0.18800
C294        C  0.10451519  0.31083451  0.78433713    -0.18800
C295        C  0.10602038  0.43472400  0.78791624    -0.18800
H296        H  0.13075658  0.41156072  0.68145645     0.14100
H297        H  0.13246477  0.34408451  0.68003792     0.14100
H298        H  0.06093037  0.40527680  0.81474425     0.14100
H299        H  0.06012668  0.33780370  0.81273950     0.14100
H300        H  0.14788726  0.00195877  0.73935954     0.12300
H301        H  0.13088368  0.99967960  0.77619724     0.12300
H302        H  0.15553926  0.25059522  0.73587173     0.12300
H303        H  0.13556603  0.24859634  0.77236518     0.12300
H304        H  0.14396961  0.37552407  0.73900931     0.25600
H305        H  0.12978000  0.37336434  0.77240946     0.25600
N306        N  0.37402306  0.42541445  0.74864111    -0.37200
N307        N  0.35876462  0.37397989  0.71891275    -0.57700
N308        N  0.37564504  0.32192004  0.74644945    -0.37200
N309        N  0.39322395  0.37320829  0.77549148    -0.57700
C310        C  0.37225367  0.44441282  0.73236080     0.26400
C311        C  0.39029850  0.44393693  0.76219585     0.26400
C312        C  0.37343437  0.30339606  0.72976026     0.26400
C313        C  0.39229222  0.30295270  0.75938070     0.26400
C314        C  0.34560441  0.40188577  0.71068297     0.35000
C315        C  0.34599496  0.34660241  0.70958368     0.35000
C316        C  0.39285974  0.40029501  0.78784330     0.35000
C317        C  0.39359493  0.34507293  0.78663908     0.35000
C318        C  0.38771142  0.47529177  0.73554844    -0.22400
C319        C  0.39922215  0.47493793  0.75437169    -0.22400
C320        C  0.38912682  0.27242779  0.73203564    -0.22400
C321        C  0.40112608  0.27217756  0.75073902    -0.22400
C322        C  0.32447977  0.39222599  0.69594034    -0.23500
C323        C  0.32475552  0.35712697  0.69523718    -0.23500
C324        C  0.39307075  0.38936452  0.80696317    -0.23500
C325        C  0.39345402  0.35430150  0.80620448    -0.23500
C326        C  0.35444919  0.43580292  0.71541619    -0.18800
C327        C  0.39482017  0.43458662  0.78187385    -0.18800
C328        C  0.39687493  0.31142966  0.77926658    -0.18800
C329        C  0.35489930  0.31243942  0.71329076    -0.18800
H330        H  0.39050147  0.99465445  0.72383783     0.14100
H331        H  0.41590402  0.99452914  0.75920439     0.14100
H332        H  0.39110040  0.25186876  0.72144691     0.14100
H333        H  0.41414691  0.25134991  0.75738273     0.14100
H334        H  0.31065815  0.40873299  0.68652103     0.12300
H335        H  0.31116635  0.34122181  0.68520949     0.12300
H336        H  0.39329230  0.40499618  0.82005673     0.12300
H337        H  0.39412781  0.33754838  0.81861797     0.12300
H338        H  0.36114918  0.40311999  0.75113783     0.25600
H339        H  0.36266931  0.34402401  0.74971498     0.25600
N340        N  0.09337655  0.12925332  0.22172236    -0.37200
N341        N  0.10524071  0.07529616  0.24941445    -0.57700
N342        N  0.12210779  0.12547591  0.27916800    -0.37200
N343        N  0.11273049  0.17926729  0.25087799    -0.57700
C344        C  0.09378306  0.10170545  0.20965283     0.26400
C345        C  0.09634763  0.15728836  0.21056319     0.26400
C346        C  0.13247599  0.09637974  0.28758890     0.26400
C347        C  0.13725875  0.15174006  0.28825634     0.26400
C348        C  0.09044307  0.05732540  0.23508609     0.35000
C349        C  0.10525510  0.05530617  0.26530975     0.35000
C350        C  0.10110010  0.20056416  0.23719745     0.35000
C351        C  0.11755062  0.19843898  0.26709559     0.35000
C352        C  0.09693857  0.11244233  0.19055929    -0.22400
C353        C  0.09804642  0.14750988  0.19111361    -0.22400
C354        C  0.15411211  0.10428060  0.30238993    -0.22400
C355        C  0.15710834  0.13924553  0.30281691    -0.22400
C356        C  0.08056265  0.02597137  0.24201966    -0.23500
C357        C  0.09022919  0.02458326  0.26114606    -0.23500
C358        C  0.09875093  0.23343381  0.24473715    -0.23500
C359        C  0.10904128  0.23204480  0.26369542    -0.23500
C360        C  0.08907351  0.06743261  0.21538119    -0.18800
C361        C  0.09562513  0.19141229  0.21750278    -0.18800
C362        C  0.13254777  0.18672337  0.28426942    -0.18800
C363        C  0.12168162  0.06309582  0.28281226    -0.18800
H364        H  0.09780261  0.09673167  0.17750813     0.14100
H365        H  0.09983825  0.16383832  0.17857176     0.14100
H366        H  0.16639653  0.08670142  0.31193964     0.14100
H367        H  0.17218516  0.15381412  0.31272552     0.14100
H368        H  0.07072565  0.50542801  0.23343838     0.12300
H369        H  0.08634180  0.50374331  0.27073479     0.12300
H370        H  0.09126634  0.25627500  0.23726077     0.12300
H371        H  0.11084975  0.25351362  0.27367752     0.12300
H372        H  0.08762539  0.12922312  0.23643654     0.25600
H373        H  0.10336551  0.12747466  0.26917082     0.25600
N374        N  0.36598358  0.07245519  0.24963457    -0.37200
N375        N  0.34782224  0.12401328  0.27861080    -0.57700
N376        N  0.36754682  0.17602073  0.25211184    -0.37200
N377        N  0.38722455  0.12433957  0.22361103    -0.57700
C378        C  0.36420815  0.05381691  0.26604260     0.26400
C379        C  0.38231638  0.05360068  0.23624958     0.26400
C380        C  0.36346911  0.19426466  0.26878407     0.26400
C381        C  0.38694798  0.19431372  0.24038025     0.26400
C382        C  0.33450159  0.09596009  0.28638974     0.35000
C383        C  0.33311408  0.15115236  0.28706915     0.35000
C384        C  0.38686396  0.09762527  0.21097073     0.35000
C385        C  0.38980107  0.15277921  0.21283831     0.35000
C386        C  0.37987347  0.02288531  0.26311812    -0.22400
C387        C  0.39077398  0.02247985  0.24423223    -0.28400
C388        C  0.38059084  0.22446770  0.26772326    -0.22400
C389        C  0.39561906  0.22440558  0.24982772    -0.22400
C390        C  0.31099172  0.10523934  0.29981465    -0.23500
C391        C  0.31010410  0.14035491  0.30023836    -0.23500
C392        C  0.38938587  0.10909729  0.19203324    -0.23500
C393        C  0.39091631  0.14409488  0.19319674    -0.23500
C394        C  0.34569197  0.06245935  0.28270366    -0.18800
C395        C  0.38762757  0.06313927  0.21669028    -0.18800
C396        C  0.39415897  0.18599254  0.22071825    -0.18800
C397        C  0.34277549  0.18521628  0.28423763    -0.18800
H398        H  0.38167674  0.50183187  0.27291603     0.14100
H399        H  0.40131199  0.50075733  0.23660253     0.14100
H400        H  0.38179456  0.24460594  0.27861079     0.14100
H401        H  0.41055814  0.24462493  0.24421641     0.14100
H402        H  0.29650059  0.08847951  0.30862925     0.12300
H403        H  0.29486957  0.15610531  0.30946899     0.12300
H404        H  0.39061680  0.09389234  0.17880425     0.12300
H405        H  0.39337423  0.16111377  0.18099587     0.12300
H406        H  0.35315127  0.09477169  0.24689816     0.25600
H407        H  0.35438843  0.15453160  0.24798007     0.25600
N408        N  0.45676978  0.30097331  0.09584289    -0.06700
N409        N  0.43201313  0.27975352  0.09387815    -0.58800
N410        N  0.53014606  0.32819145  0.08110506    -0.06300
N411        N  0.05577717  0.32867029  0.06922627    -0.60900
N412        N  0.53252270  0.30579272  0.09509018    -0.05900
N413        N  0.05860295  0.29014741  0.09290256    -0.58800
N414        N  0.45603996  0.32366639  0.08196343    -0.05600
N415        N  0.43115967  0.31859104  0.07040672    -0.61300
C416        C  0.41610608  0.29118613  0.07783850     0.95500
C417        C  0.07349801  0.30328665  0.07707763     0.95300
N418        N  0.52461994  0.43255723  0.09149280    -0.06900
N419        N  0.05116677  0.45636873  0.08669294    -0.59400
N420        N  0.45145814  0.40165508  0.08041063    -0.05000
N421        N  0.42562769  0.40012526  0.06936564    -0.60600
N422        N  0.44948894  0.42723917  0.09286806    -0.06900
N423        N  0.42195720  0.44387785  0.09033255    -0.59600
N424        N  0.52501535  0.40685420  0.07905762    -0.04600
N425        N  0.05008590  0.41250055  0.06566446    -0.60700
Mn426      Mn  0.49074339  0.36510674  0.08016408     1.18400
C427        C  0.06502988  0.44174910  0.07069574     0.97600
C428        C  0.40721783  0.42638742  0.07563069     0.98300
N429        N  0.03206513  0.31186551  0.14032622    -0.06900
N430        N  0.05128880  0.28690144  0.14580467    -0.63200
N431        N  0.45851914  0.33025770  0.15510266    -0.05700
N432        N  0.44075649  0.32073210  0.17008392    -0.63900
N433        N  0.45983086  0.30543539  0.14200638    -0.06400
N434        N  0.44310663  0.27894663  0.14786110    -0.63500
N435        N  0.03202831  0.33655785  0.15348162    -0.05300
N436        N  0.05100198  0.32836381  0.16819580    -0.64200
Mn437      Mn  0.49543005  0.30468094  0.11836888     1.10700
C438        C  0.06318504  0.29740427  0.16318279     0.98800
C439        C  0.43086980  0.28881156  0.16525374     0.98900
N440        N  0.45241173  0.43530796  0.13916610    -0.06400
N441        N  0.43404842  0.46145033  0.14445675    -0.61800
N442        N  0.03000767  0.41891786  0.15136577    -0.05700
N443        N  0.04816419  0.43142588  0.16557318    -0.58500
N444        N  0.02878752  0.44068501  0.13688453    -0.07000
N445        N  0.04630608  0.46784952  0.14093937    -0.61400
N446        N  0.45401612  0.41298193  0.15334726    -0.06000
N447        N  0.43682174  0.42382856  0.16841259    -0.58500
Mn448      Mn  0.48788913  0.43447689  0.11504617     1.20200
Mn449      Mn  0.49271521  0.37382874  0.15398993     1.10100
Cl450      Cl  0.49164790  0.36956716  0.11702421    -0.86500
C451        C  0.42410522  0.45394804  0.16268662     0.95800
C452        C  0.05823249  0.46199149  0.15890989     0.95600
C453        C  0.39669979  0.03607795  0.20221332    -0.06700
C454        C  0.42749641  0.02136008  0.20358653    -0.17800
C455        C  0.43545108  0.49379273  0.19119962     0.10500
C456        C  0.41419258  0.48110281  0.17671508    -0.06600
C457        C  0.38487199  0.99719849  0.17517801    -0.17800
C458        C  0.37496483  0.02344475  0.18794999     0.10600
S459        S  0.47456608  0.47544227  0.19567510    -0.32800
S460        S  0.33426191  0.03927465  0.18545825    -0.32800
H461        H  0.32982995  0.04827280  0.20515010     0.28600
H462        H  0.46178004  0.44382099  0.20114961     0.28600
H463        H  0.44424592  0.03074103  0.21453330     0.19200
H464        H  0.36846452  0.98828162  0.16392635     0.19200
C465        C  0.42142829  0.26361878  0.17997740    -0.06700
C466        C  0.44172822  0.23539401  0.18295712    -0.17800
C467        C  0.43477207  0.21115265  0.19710882     0.10500
C468        C  0.40552126  0.21361484  0.20763744    -0.06600
C469        C  0.38542895  0.24210266  0.20480410    -0.17800
C470        C  0.39325879  0.26724751  0.19129820     0.10600
S471        S  0.46442642  0.17814615  0.20119663    -0.32800
S472        S  0.36573486  0.30257347  0.18866727    -0.32800
H473        H  0.37095462  0.30723269  0.16864173     0.28600
H474        H  0.45643621  0.17270614  0.22081658     0.28600
H475        H  0.46371155  0.23266920  0.17454222     0.19200
H476        H  0.36303907  0.24434446  0.21286920     0.19200
C477        C  0.06685688  0.49009524  0.17242565    -0.06700
C478        C  0.09451342  0.48644673  0.18399923    -0.17800
C479        C  0.10151998  0.01138172  0.19757871     0.10500
C480        C  0.08220880  0.04098082  0.20006661    -0.06600
C481        C  0.05497470  0.04514813  0.18815030    -0.17800
C482        C  0.04633453  0.02056224  0.17419046     0.10600
S483        S  0.14185353  0.50656858  0.20968537    -0.32800
S484        S  0.01150494  0.03016167  0.15934060    -0.32800
H485        H  0.00054006  0.49542915  0.15984483     0.28600
H486        H  0.14674838  0.03967660  0.21241483     0.28600
H487        H  0.10939942  0.46382160  0.18237528     0.19200
H488        H  0.04010955  0.06777372  0.18985688     0.19200
C489        C  0.08847656  0.21917498  0.20357410    -0.06700
C490        C  0.05756440  0.23375186  0.20405654    -0.17800
C491        C  0.04917814  0.26026221  0.19162106     0.10500
C492        C  0.07189257  0.27202084  0.17791211    -0.06600
C493        C  0.10281952  0.25751344  0.17739866    -0.17800
C494        C  0.11168735  0.23193881  0.19046895     0.10600
S495        S  0.00927374  0.27811143  0.19416485    -0.32800
S496        S  0.15283041  0.21681578  0.18966285    -0.32800
H497        H  0.15465939  0.20631519  0.20912996     0.28600
H498        H  0.00341652  0.28064180  0.17408410     0.28600
H499        H  0.03988125  0.22446473  0.21433008     0.19200
H500        H  0.12031002  0.26652565  0.16693566     0.19200
C501        C  0.07048353  0.01457010  0.82464751    -0.06700
C502        C  0.09348602  0.99142282  0.83179332    -0.17800
C503        C  0.10421885  0.46423701  0.82133914     0.10500
C504        C  0.09464020  0.46201307  0.80159250    -0.06600
C505        C  0.07389407  0.48697643  0.79412670    -0.17800
C506        C  0.05893491  0.01024139  0.80533031     0.10600
S507        S  0.13221030  0.43471708  0.83224085    -0.32800
S508        S  0.54054906  0.04925408  0.79342810    -0.32800
H509        H  0.51626603  0.04793611  0.80763580     0.28600
H510        H  0.14951197  0.42722024  0.81511376     0.28600
H511        H  0.10230687  0.99430143  0.84659568     0.19200
H512        H  0.06629837  0.48533111  0.77902247     0.19200
C513        C  0.07139179  0.22785371  0.81961402    -0.06700
C514        C  0.09619312  0.24922442  0.82640333    -0.17800
C515        C  0.10784041  0.27596993  0.81511853     0.10500
C516        C  0.09361284  0.28249074  0.79686355    -0.06600
C517        C  0.06890844  0.26112840  0.78996132    -0.17800
C518        C  0.05788112  0.23375321  0.80099654     0.10600
S519        S  0.14068983  0.30097218  0.82484430    -0.32800
S520        S  0.02488224  0.20922032  0.79119894    -0.32800
H521        H  0.53918475  0.18890587  0.79390380     0.28600
H522        H  0.15495450  0.30827065  0.80680125     0.28600
H523        H  0.10654094  0.24507936  0.84069926     0.19200
H524        H  0.05803562  0.26599603  0.77588470     0.19200
C525        C  0.40369379  0.46159907  0.79648157    -0.06700
C526        C  0.43419338  0.46033798  0.80536227    -0.17800
C527        C  0.44434703  0.48588603  0.81841244     0.10500
C528        C  0.42683386  0.01340681  0.82218405    -0.06600
C529        C  0.39699876  0.01502171  0.81255563    -0.17800
C530        C  0.38272349  0.48902575  0.80103797     0.10600
S531        S  0.48459816  0.48175647  0.82827809    -0.32800
S532        S  0.34255601  0.49064872  0.79079555    -0.32800
H533        H  0.33336657  0.52194755  0.79934784     0.28600
H534        H  0.49325311  0.01586020  0.83223915     0.28600
H535        H  0.45048259  0.43951593  0.80179416     0.19200
H536        H  0.38086081  0.03605941  0.81586215     0.19200
C537        C  0.40514820  0.28358099  0.79295379    -0.06700
C538        C  0.38223885  0.25786830  0.79616977    -0.17800
C539        C  0.38782711  0.23210721  0.80974933     0.10500
C540        C  0.41691517  0.23209138  0.82040663    -0.06600
C541        C  0.44006269  0.25735379  0.81690182    -0.17800
C542        C  0.43479814  0.28268221  0.80312991     0.10600
S543        S  0.35679178  0.20054341  0.81298541    -0.32800
S544        S  0.46700549  0.31274862  0.79922384    -0.32800
H545        H  0.45892259  0.32063685  0.77990483     0.28600
H546        H  0.36410832  0.19283172  0.83244090     0.28600
H547        H  0.35957051  0.25828185  0.78827320     0.19200
H548        H  0.46275942  0.25702360  0.82478840     0.19200
C549        C  0.15975186  0.26409331  0.04970403    -0.06700
C550        C  0.15127832  0.29844830  0.04766390    -0.17800
C551        C  0.12478084  0.31247083  0.05751499     0.10500
C552        C  0.10500333  0.29132956  0.06908807    -0.06600
C553        C  0.11466953  0.25734460  0.07201278    -0.17800
C554        C  0.14202052  0.24366726  0.06265974     0.10600
S555        S  0.11828735  0.35767280  0.05496449    -0.32800
S556        S  0.15198377  0.19963121  0.06701439    -0.32800
H557        H  0.18504475  0.20210185  0.06279791     0.28600
H558        H  0.10936454  0.36303767  0.07454257     0.28600
H559        H  0.16536609  0.31445246  0.03813297     0.19200
H560        H  0.10028526  0.24096631  0.08114801     0.19200
C561        C  0.32969831  0.25452985  0.04878923    -0.06700
C562        C  0.34127134  0.23683087  0.06507035    -0.17800
C563        C  0.36871821  0.24824392  0.07541071     0.10500
C564        C  0.38557585  0.27754533  0.06903588    -0.06600
C565        C  0.37329628  0.29507455  0.05281236    -0.17800
C566        C  0.34575337  0.28426549  0.04290916     0.10600
S567        S  0.38096261  0.22410518  0.09627943    -0.32800
S568        S  0.33281361  0.30908697  0.02232252    -0.32800
H569        H  0.29955233  0.30502015  0.02551316     0.28600
H570        H  0.38097608  0.25278646  0.10878305     0.28600
H571        H  0.32898963  0.21393987  0.06965013     0.19200
H572        H  0.38521342  0.31772510  0.04757369     0.19200
C573        C  0.15820251  0.22390429  0.95178783    -0.06700
C574        C  0.15768713  0.19479458  0.93967244    -0.17800
C575        C  0.13166674  0.18842255  0.92712387     0.10500
C576        C  0.10482052  0.21064174  0.92729381    -0.06600
C577        C  0.10627445  0.24091539  0.93826635    -0.17800
C578        C  0.13301046  0.24818532  0.95012898     0.10600
S579        S  0.13379321  0.15141342  0.91133241    -0.32800
S580        S  0.13292855  0.28813765  0.96340274    -0.32800
H581        H  0.16666485  0.29115427  0.96479745     0.28600
H582        H  0.11190493  0.16338542  0.89728378     0.28600
H583        H  0.17737575  0.17658802  0.94029228     0.19200
H584        H  0.08584819  0.25824216  0.93829778     0.19200
C585        C  0.38169301  0.21267781  0.92854693    -0.06700
C586        C  0.37898596  0.24277190  0.93958846    -0.17800
C587        C  0.35179591  0.24894834  0.95119430     0.10500
C588        C  0.32718636  0.22406558  0.95205830    -0.06600
C589        C  0.32900759  0.19514437  0.93991200    -0.17800
C590        C  0.35575078  0.18951470  0.92793378     0.10600
S591        S  0.35092817  0.28788468  0.96545909    -0.32800
S592        S  0.35605141  0.15168196  0.91272538    -0.32800
H593        H  0.37744769  0.16429541  0.89866957     0.28600
H594        H  0.31721979  0.28974371  0.96750786     0.28600
H595        H  0.39891701  0.26060123  0.94004001     0.19200
H596        H  0.30998999  0.17625442  0.94029389     0.19200
C597        C  0.09384298  0.45438138  0.06021456    -0.06700
C598        C  0.11767240  0.47298552  0.07029898    -0.17800
C599        C  0.14659517  0.48241988  0.06111667     0.10500
C600        C  0.15244649  0.47174111  0.04166042    -0.06600
C601        C  0.12862775  0.45316852  0.03172177    -0.17800
C602        C  0.09917106  0.44568672  0.04039124     0.10600
S603        S  0.17335598  0.00867603  0.07345980    -0.32800
S604        S  0.06878147  0.42706449  0.02475493    -0.32800
H605        H  0.04325411  0.44639300  0.03275289     0.28600
H606        H  0.18768065  0.02416359  0.05728598     0.28600
H607        H  0.11312219  0.97982527  0.08442659     0.19200
H608        H  0.13248850  0.44581902  0.01662232     0.19200
C609        C  0.37602374  0.43479335  0.06616302    -0.06700
C610        C  0.36816147  0.41637856  0.04906778    -0.17800
C611        C  0.34106750  0.42435052  0.03802730     0.10500
C612        C  0.32131071  0.45184312  0.04382450    -0.06600
C613        C  0.32778216  0.46920133  0.06136824    -0.17800
C614        C  0.35457112  0.46056506  0.07280528     0.10600
S615        S  0.33410000  0.39992855  0.01597982    -0.32800
S616        S  0.35581201  0.97891944  0.09745026    -0.32800
H617        H  0.36408214  0.94853688  0.10698994     0.28600
H618        H  0.30037570  0.40399563  0.01579686     0.28600
H619        H  0.38362615  0.39593917  0.04382939     0.19200
H620        H  0.30941364  0.98750786  0.06728982     0.19200
C621        C  0.16413195  0.03542956  0.94905155    -0.06700
C622        C  0.14615876  0.01054239  0.93906836    -0.17800
C623        C  0.11696741  0.01875266  0.92991723     0.10500
C624        C  0.10541231  0.05272277  0.93071271    -0.06600
C625        C  0.12443623  0.07779401  0.93994970    -0.17800
C626        C  0.15393586  0.06970655  0.94863932     0.10600
S627        S  0.09428993  0.98409989  0.91934306    -0.32800
S628        S  0.17605785  0.10359387  0.96054343    -0.32800
H629        H  0.20666206  0.08847536  0.95841220     0.28600
H630        H  0.06549372  0.99298687  0.92902812     0.28600
H631        H  0.15379805  0.98411546  0.93959453     0.19200
H632        H  0.11595398  0.10388682  0.94084114     0.19200
C633        C  0.38822647  0.05097090  0.93542975    -0.06700
C634        C  0.37747306  0.01765879  0.93123374    -0.17800
C635        C  0.34995950  0.00413223  0.94027232     0.10500
C636        C  0.33174093  0.02491741  0.95317554    -0.06600
C637        C  0.34148925  0.05852479  0.95664588    -0.17800
C638        C  0.36981148  0.07135276  0.94863234     0.10600
S639        S  0.34014667  0.96018057  0.93487283    -0.32800
S640        S  0.38115605  0.11342039  0.95684628    -0.32800
H641        H  0.40909208  0.10148065  0.96630702     0.28600
H642        H  0.31608025  0.95541695  0.94891451     0.28600
H643        H  0.39119217  0.00155221  0.92132619     0.19200
H644        H  0.32782645  0.07431469  0.96677416     0.19200
C645        C  0.15852827  0.01960553  0.68003039    -0.06700
C646        C  0.18325240  0.00799056  0.69229269    -0.17800
C647        C  0.17635293  0.46770956  0.69752898     0.10500
C648        C  0.14566571  0.46565985  0.70630042    -0.06600
C649        C  0.12211266  0.49027766  0.70184902    -0.17800
C650        C  0.12854406  0.51665465  0.68874850     0.10600
S651        S  0.20873436  0.43834552  0.70280517    -0.32800
S652        S  0.09631985  0.54644333  0.68380801    -0.32800
H653        H  0.10530247  0.04900780  0.66139166     0.28600
H654        H  0.20051529  0.43338597  0.72243108     0.28600
H655        H  0.20694123  0.01959775  0.69163026     0.19200
H656        H  0.09855935  0.48885939  0.70863597     0.19200
C657        C  0.14781958  0.28814229  0.70264275    -0.06700
C658        C  0.17872116  0.28791436  0.69436761    -0.17800
C659        C  0.18819396  0.26202551  0.68132548     0.10500
C660        C  0.16610241  0.23596879  0.67629571    -0.06600
C661        C  0.13528936  0.23605240  0.68463752    -0.17800
C662        C  0.12576273  0.26203158  0.69757308     0.10600
S663        S  0.22901141  0.26154115  0.67200826    -0.32800
S664        S  0.08535330  0.26023978  0.70726069    -0.32800
H665        H  0.08148196  0.29559037  0.70994927     0.28600
H666        H  0.24078237  0.28874352  0.68348458     0.28600
H667        H  0.19563107  0.30769705  0.69854142     0.19200
H668        H  0.11842381  0.21595871  0.68087041     0.19200
C669        C  0.34377596  0.46396160  0.70250516    -0.06700
C670        C  0.32162392  0.48791847  0.70985325    -0.17800
C671        C  0.30999541  0.51440004  0.69830774     0.10500
C672        C  0.31917838  0.01607618  0.67902107    -0.06600
C673        C  0.34007210  0.99104095  0.67132924    -0.17800
C674        C  0.35514384  0.46711588  0.68325703     0.10600
S675        S  0.28017120  0.54226782  0.70903617    -0.32800
S676        S  0.38156016  0.93505923  0.67307229    -0.32800
H677        H  0.38897473  0.45372596  0.65553889     0.28600
H678        H  0.30711083  0.07298575  0.70716387     0.28600
H679        H  0.31297790  0.48563034  0.72467901     0.19200
H680        H  0.34668227  0.99203915  0.65608939     0.19200
C681        C  0.32027018  0.22924306  0.67688250    -0.06700
C682        C  0.34181742  0.25328851  0.66922076    -0.17800
C683        C  0.35403875  0.28018779  0.68070210     0.10500
C684        C  0.34340990  0.28436562  0.70013808    -0.06600
C685        C  0.32170938  0.26062276  0.70775422    -0.17800
C686        C  0.31046466  0.23304730  0.69657624     0.10600
S687        S  0.38344261  0.30789229  0.66982499    -0.32800
S688        S  0.28221786  0.20502586  0.70812600    -0.32800
H689        H  0.30337778  0.17693472  0.70696145     0.28600
H690        H  0.40029809  0.31539364  0.68713259     0.28600
H691        H  0.34960698  0.25079970  0.65420329     0.19200
H692        H  0.31353649  0.26357183  0.72267823     0.19200
C693        C  0.15278817  0.48337107  0.32051189    -0.06700
C694        C  0.12852352  0.50573304  0.32719987    -0.17800
C695        C  0.11684630  0.03022343  0.31445916     0.10500
C696        C  0.13066583  0.03446677  0.29584029    -0.06600
C697        C  0.15539189  0.01232823  0.28973567    -0.17800
C698        C  0.16473175  0.48722021  0.30135586     0.10600
S699        S  0.08458011  0.05689161  0.32363467    -0.32800
S700        S  0.19781020  0.46251318  0.29166073    -0.32800
H701        H  0.21720639  0.46678396  0.30836042     0.28600
H702        H  0.07244515  0.06714684  0.30549429     0.28600
H703        H  0.11931274  0.50320444  0.34188329     0.19200
H704        H  0.16640934  0.01585651  0.27558709     0.19200
C705        C  0.14462474  0.21266517  0.29851167    -0.06700
C706        C  0.12812634  0.21707963  0.31620174    -0.17800
C707        C  0.13599156  0.24372085  0.32911107     0.10500
C708        C  0.16097946  0.26653604  0.32435102    -0.06600
C709        C  0.17789771  0.26171341  0.30679507    -0.17800
C710        C  0.17033776  0.23482305  0.29400631     0.10600
S711        S  0.11237870  0.24817161  0.35103304    -0.32800
S712        S  0.19426918  0.23015187  0.27217349    -0.32800
H713        H  0.19046926  0.19468116  0.27016253     0.28600
H714        H  0.11332259  0.28400502  0.35177673     0.28600
H715        H  0.10828021  0.20028275  0.31967253     0.19200
H716        H  0.19766088  0.27854205  0.30321386     0.19200
C717        C  0.31844371  0.48050510  0.32059980    -0.06700
C718        C  0.33555970  0.00887262  0.32831946    -0.17800
C719        C  0.34585875  0.03517662  0.31623044     0.10500
C720        C  0.33697365  0.03469737  0.29634150    -0.06600
C721        C  0.31986937  0.00663056  0.28888175    -0.17800
C722        C  0.30985782  0.48037227  0.30061678     0.10600
S723        S  0.37023340  0.06838704  0.32710464    -0.32800
S724        S  0.28656064  0.44720717  0.28903577    -0.32800
H725        H  0.30897285  0.42160623  0.29386204     0.28600
H726        H  0.38793922  0.07574078  0.31021852     0.28600
H727        H  0.34128309  0.01025154  0.34372333     0.19200
H728        H  0.31341827  0.00581133  0.27357057     0.19200
C729        C  0.33159520  0.21257441  0.29796511    -0.06700
C730        C  0.31054651  0.23760475  0.29088653    -0.17800
C731        C  0.30001910  0.26474871  0.30272698     0.10500
C732        C  0.31016226  0.26693634  0.32246709    -0.06600
C733        C  0.33071514  0.24135049  0.32961479    -0.17800
C734        C  0.34201238  0.21472832  0.31756134     0.10600
S735        S  0.27231767  0.29448267  0.29191288    -0.32800
S736        S  0.37007579  0.18475842  0.32800103    -0.32800
H737        H  0.38667102  0.17688078  0.31067566     0.28600
H738        H  0.29474395  0.32133833  0.29276991     0.28600
H739        H  0.30236428  0.23604309  0.27589343     0.19200
H740        H  0.33863917  0.24250468  0.34466103     0.19200
C741        C  0.07239152  0.21483900  0.54799414    -0.06700
C742        C  0.08798038  0.23924015  0.55976982    -0.17800
C743        C  0.11674349  0.23143211  0.56962562     0.10500
C744        C  0.13027740  0.19838202  0.56769302    -0.06600
C745        C  0.11351628  0.17374242  0.55658674    -0.17800
C746        C  0.08467768  0.18134401  0.54707694     0.10600
S747        S  0.13590156  0.26538272  0.58311796    -0.32800
S748        S  0.06610072  0.14780383  0.53278435    -0.32800
H749        H  0.03440189  0.16042444  0.53400630     0.28600
H750        H  0.16619937  0.26015619  0.57432887     0.28600
H751        H  0.07858804  0.26504334  0.56043201     0.19200
H752        H  0.12315899  0.14817352  0.55496402     0.19200
C753        C  0.40343949  0.21067560  0.54386195    -0.06700
C754        C  0.39040490  0.23320488  0.55778795    -0.17800
C755        C  0.36305937  0.22449251  0.56862151     0.10500
C756        C  0.34860615  0.19210166  0.56577140    -0.06600
C757        C  0.36268492  0.16921674  0.55227349    -0.17800
C758        C  0.38971847  0.17807210  0.54136213     0.10600
S759        S  0.34691983  0.25674653  0.58474764    -0.32800
S760        S  0.40400009  0.14768841  0.52335961    -0.32800
H761        H  0.43644689  0.15800247  0.52379576     0.28600
H762        H  0.31598845  0.25553803  0.57626341     0.28600
H763        H  0.40077170  0.25838484  0.55957140     0.19200
H764        H  0.35228537  0.14420400  0.54987681     0.19200
C765        C  0.13135620  0.30622867  0.43804730    -0.06700
C766        C  0.11030644  0.28288704  0.42894251    -0.17800
C767        C  0.08211672  0.27171457  0.43825857     0.10500
C768        C  0.07400921  0.28507640  0.45683374    -0.06600
C769        C  0.09444007  0.30902829  0.46565162    -0.17800
C770        C  0.12322016  0.31892159  0.45690548     0.10600
S771        S  0.05798392  0.24002880  0.42586013    -0.32800
S772        S  0.14892257  0.34618473  0.47145576    -0.32800
H773        H  0.17675264  0.32632945  0.46809566     0.28600
H774        H  0.04635216  0.22408596  0.44266505     0.28600
H775        H  0.11601238  0.27290109  0.41457040     0.19200
H776        H  0.08866777  0.31876471  0.48008795     0.19200
C777        C  0.40328411  0.28422389  0.45314762    -0.06700
C778        C  0.38393785  0.30912170  0.46209145    -0.17800
C779        C  0.35465087  0.31925180  0.45396908     0.10500
C780        C  0.34516687  0.30642814  0.43538851    -0.06600
C781        C  0.36533454  0.28241056  0.42600213    -0.17800
C782        C  0.39381536  0.27057407  0.43487322     0.10600
S783        S  0.32967280  0.34617512  0.46920712    -0.32800
S784        S  0.41638923  0.23757442  0.42239105    -0.32800
H785        H  0.42916369  0.22207414  0.43907428     0.28600
H786        H  0.30197995  0.32594482  0.46653535     0.28600
H787        H  0.39066224  0.31893573  0.47636141     0.19200
H788        H  0.35855291  0.27219311  0.41185475     0.19200
C789        C  0.12280055  0.04170943  0.57290708    -0.06700
C790        C  0.12062552  0.00998526  0.56344408    -0.17800
C791        C  0.09350259  0.00152541  0.55221708     0.10500
C792        C  0.06843671  0.02572876  0.54991791    -0.06600
C793        C  0.06966253  0.05645801  0.56054462    -0.17800
C794        C  0.09631209  0.06439935  0.57226595     0.10600
S795        S  0.09185864  0.45602549  0.54192657    -0.32800
S796        S  0.09532835  0.10395405  0.58589210    -0.32800
H797        H  0.11656393  0.09352708  0.60068881     0.28600
H798        H  0.05803389  0.45424257  0.54065389     0.28600
H799        H  0.14078449  0.99235093  0.56405592     0.19200
H800        H  0.05023271  0.07484720  0.55917038     0.19200
C801        C  0.39931967  0.02134497  0.54733096    -0.06700
C802        C  0.37616741  0.99527006  0.54845520    -0.17800
C803        C  0.34836699  0.99911324  0.55997184     0.10500
C804        C  0.34338162  0.02979862  0.57050739    -0.06600
C805        C  0.36760213  0.05469518  0.57048140    -0.17800
C806        C  0.39530671  0.05095612  0.55902448     0.10600
S807        S  0.31946088  0.46331353  0.55884030    -0.32800
S808        S  0.42345522  0.08592893  0.55916857    -0.32800
H809        H  0.43290190  0.08267596  0.53959346     0.28600
H810        H  0.30790853  0.97041349  0.57826922     0.28600
H811        H  0.38008533  0.46984919  0.53971934     0.19200
H812        H  0.36384352  0.07840951  0.57844375     0.19200
C813        C  0.07171132  0.48936102  0.45170055    -0.06700
C814        C  0.07835950  0.45450655  0.44961831    -0.17800
C815        C  0.10405098  0.44285204  0.43818619     0.10500
C816        C  0.12531347  0.46648171  0.42958354    -0.06600
C817        C  0.11769558  0.50137795  0.43073638    -0.17800
C818        C  0.09070468  0.51299484  0.44135521     0.10600
S819        S  0.10741599  0.39743828  0.43448974    -0.32800
S820        S  0.08191324  0.05927194  0.43851058    -0.32800
H821        H  0.04938700  0.05772482  0.44415194     0.28600
H822        H  0.12005352  0.39938253  0.41551776     0.28600
H823        H  0.06315236  0.43615860  0.45688296     0.19200
H824        H  0.13263193  0.01920348  0.42188055     0.19200
C825        C  0.34624401  0.46932484  0.42742238    -0.06700
C826        C  0.35250260  0.50449006  0.42823986    -0.17800
C827        C  0.37959765  0.51720110  0.43823456     0.10500
C828        C  0.40011857  0.49431787  0.44813695    -0.06600
C829        C  0.39491732  0.45921464  0.44622462    -0.17800
C830        C  0.36880822  0.44644260  0.43557568     0.10600
S831        S  0.38613465  0.06406532  0.43767589    -0.32800
S832        S  0.36543301  0.40089202  0.43188296    -0.32800
H833        H  0.39292367  0.39135172  0.44259519     0.28600
H834        H  0.41954384  0.06292686  0.44120530     0.28600
H835        H  0.33570815  0.52217164  0.42163464     0.19200
H836        H  0.41136418  0.44180010  0.45334008     0.19200
N837        N  0.43542379  0.01358851  0.49694342    -0.37200
N838        N  0.98658233  0.00833250  0.46856368    -0.57700
N839        N  0.03491167  0.50873995  0.50039410    -0.37200
N840        N  0.98481808  0.51861503  0.52976194    -0.57700
C841        C  0.41715660  0.01723736  0.48073420     0.26400
C842        C  0.41722342  0.51902993  0.51260235     0.26400
C843        C  0.05361516  0.01470347  0.48344590     0.26400
C844        C  0.05285614  0.51889439  0.51589346     0.26400
C845        C  0.45891147  0.00332835  0.45553510     0.35000
C846        C  0.01295366  0.99819398  0.45840663     0.35000
C847        C  0.45882733  0.51242560  0.53852522     0.35000
C848        C  0.01061085  0.51577688  0.54170646     0.35000
C849        C  0.38626347  0.02739431  0.48607702    -0.22400
C850        C  0.38671142  0.52854766  0.50628892    -0.22400
C851        C  0.08390519  0.02637341  0.48884901    -0.22400
C852        C  0.08364005  0.52727677  0.50962856    -0.22400
C853        C  0.46835889  0.99122666  0.43734256    -0.23500
C854        C  0.00376911  0.98352992  0.44080376    -0.23500
C855        C  0.46883606  0.50739064  0.55754882    -0.23500
C856        C  0.00046390  0.51206161  0.56079491    -0.23500
C857        C  0.42645996  0.00771940  0.46155573    -0.18800
C858        C  0.42634538  0.51592941  0.53245364    -0.18800
C859        C  0.04314260  0.51831058  0.53570867    -0.18800
C860        C  0.04524559  0.00312006  0.46450957    -0.18800
H861        H  0.36571492  0.03156558  0.47666430     0.14100
H862        H  0.36625111  0.53605356  0.51515721     0.14100
H863        H  0.10464528  0.03006860  0.47956411     0.14100
H864        H  0.10377205  0.53588084  0.51844424     0.14100
H865        H  0.45299344  0.98395022  0.42523731     0.12300
H866        H  0.01928914  0.97344997  0.42943682     0.12300
H867        H  0.45378897  0.50386393  0.57023995     0.12300
H868        H  0.01540042  0.50961980  0.57365526     0.12300
H869        H  0.45786789  0.00192604  0.49743689     0.25600
H870        H  0.01256646  0.49702432  0.50101832     0.25600
N871        N  0.03735192  0.74758371  0.50098546    -0.37200
N872        N  0.48801098  0.73014561  0.52663404    -0.57700
N873        N  0.43984022  0.74689917  0.49766873    -0.37200
N874        N  0.48904835  0.76248662  0.46893057    -0.57700
C875        C  0.05547691  0.73039854  0.51407013     0.26400
C876        C  0.05533357  0.75075798  0.48467933     0.26400
C877        C  0.42118708  0.73103534  0.51095285     0.26400
C878        C  0.42209058  0.74988868  0.48120651     0.26400
C879        C  0.01463298  0.72510520  0.54040438     0.35000
C880        C  0.46154971  0.72661798  0.53785824     0.35000
C881        C  0.01500962  0.77966519  0.46366077     0.35000
C882        C  0.46320504  0.77715478  0.46035716     0.35000
C883        C  0.08531866  0.72268949  0.50593237    -0.22400
C884        C  0.08514485  0.73536376  0.48739335    -0.22400
C885        C  0.39119755  0.72409164  0.50277415    -0.22400
C886        C  0.39186322  0.73576890  0.48401798    -0.22400
C887        C  0.00504486  0.71898535  0.55936852    -0.23500
C888        C  0.47061995  0.72135984  0.55705087    -0.23500
C889        C  0.00581851  0.80191917  0.44911450    -0.23500
C890        C  0.47321014  0.80000957  0.44638190    -0.23500
C891        C  0.04674238  0.72356215  0.53358640    -0.18800
C892        C  0.04709933  0.77053763  0.46828511    -0.18800
C893        C  0.43085358  0.76895437  0.46467696    -0.18800
C894        C  0.42966644  0.72449823  0.53060498    -0.18800
H895        H  0.10550301  0.70986473  0.51270112     0.14100
H896        H  0.10508415  0.73421419  0.47722916     0.14100
H897        H  0.37055673  0.71251678  0.50966644     0.14100
H898        H  0.37194561  0.73498091  0.47379897     0.14100
H899        H  0.02034162  0.71391221  0.57180464     0.12300
H900        H  0.45502440  0.71647347  0.56933478     0.12300
H901        H  0.02141544  0.81614338  0.43955404     0.12300
H902        H  0.45812454  0.81543801  0.43706353     0.12300
H903        H  0.01599527  0.76054947  0.50389953     0.25600
H904        H  0.46156428  0.75912487  0.50043747     0.25600
N905        N  0.27500710  0.82203515  0.40704180    -0.06700
N906        N  0.30028811  0.80224457  0.41067814    -0.58800
N907        N  0.20047279  0.84768936  0.41998406    -0.06300
N908        N  0.17638208  0.84634141  0.43236610    -0.60900
N909        N  0.19950051  0.82185450  0.40764979    -0.05900
N910        N  0.17443882  0.80216932  0.41161495    -0.58800
N911        N  0.27452575  0.84792223  0.41937683    -0.05600
N912        N  0.29916842  0.84639850  0.43144519    -0.61300
C913        C  0.31503574  0.81772067  0.42613282     0.95500
C914        C  0.16044650  0.81773202  0.42728748     0.95300
N915        N  0.19783653  0.94857242  0.40385968    -0.06900
N916        N  0.17151632  0.96765218  0.40576900    -0.59400
N917        N  0.27362663  0.92688818  0.41725833    -0.05000
N918        N  0.29898503  0.93106191  0.42859416    -0.60600
N919        N  0.27339943  0.94950726  0.40331440    -0.06900
N920        N  0.29887751  0.96970243  0.40488504    -0.59600
N921        N  0.19925512  0.92611121  0.41787939    -0.04600
N922        N  0.17422374  0.92928765  0.42956150    -0.60700
Mn923      Mn  0.23705731  0.88716034  0.41909976     1.18400
C924        C  0.15688651  0.95501575  0.42184224     0.97600
C925        C  0.31473648  0.95759785  0.42068718     0.98300
N926        N  0.19934656  0.81465922  0.36113208    -0.06900
N927        N  0.18132639  0.78801141  0.35647728    -0.63200
N928        N  0.27173360  0.83671637  0.34615890    -0.05700
N929        N  0.28800354  0.82470780  0.33100066    -0.63900
N930        N  0.27227843  0.81439660  0.36038480    -0.06400
N931        N  0.28899488  0.78707043  0.35503118    -0.63500
N932        N  0.19902475  0.83687825  0.34685674    -0.05300
N933        N  0.18104910  0.82541616  0.33229800    -0.64200
Mn934      Mn  0.23657196  0.81728732  0.38432207     1.10700
C935        C  0.16956423  0.79518642  0.33856079     0.98800
C936        C  0.29885064  0.79377140  0.33667361     0.98900
N937        N  0.27164907  0.94414784  0.35758211    -0.06400
N938        N  0.29161269  0.96838527  0.35220685    -0.61800
N939        N  0.19829501  0.91933390  0.34476151    -0.05700
N940        N  0.17906230  0.92725021  0.33008939    -0.58500
N941        N  0.19832344  0.94423952  0.35780441    -0.07000
N942        N  0.17901976  0.96915326  0.35228976    -0.61400
N943        N  0.27171399  0.91903153  0.34469618    -0.06000
N944        N  0.29156927  0.92609968  0.33029856    -0.58500
Mn945      Mn  0.23523683  0.94761878  0.38072412     1.20200
Mn946      Mn  0.23518592  0.87813311  0.34535124     1.10100
Cl947      Cl  0.23602431  0.88246537  0.38226314    -0.86500
C948        C  0.30397708  0.95695725  0.33510383     0.95800
C949        C  0.16700228  0.95835120  0.33499734     0.95600
N950        N  0.27851246  0.67742638  0.59377442    -0.06700
N951        N  0.30426085  0.69648480  0.59067948    -0.58800
N952        N  0.20338404  0.65569941  0.58048318    -0.06300
N953        N  0.17878427  0.65827585  0.56847406    -0.60900
N954        N  0.20320143  0.68078128  0.59331076    -0.05900
N955        N  0.17798491  0.70093213  0.59028654    -0.58800
N956        N  0.27733155  0.65228150  0.58096386    -0.05600
N957        N  0.30202298  0.65374002  0.56893859    -0.61300
C958        C  0.31864861  0.68150065  0.57502353     0.95500
C959        C  0.16308795  0.68661978  0.57456551     0.95300
N960        N  0.19856234  0.55407964  0.59654231    -0.06900
N961        N  0.17192879  0.53568139  0.59514420    -0.59400
N962        N  0.27368138  0.57282390  0.58229888    -0.05000
N963        N  0.29739355  0.56664485  0.57000218    -0.60600
N964        N  0.27357339  0.55024606  0.59627892    -0.06900
N965        N  0.29754901  0.52818436  0.59378100    -0.59600
N966        N  0.19936470  0.57702031  0.58273383    -0.04600
N967        N  0.17326324  0.57501780  0.57176343    -0.60700
Mn968      Mn  0.23852936  0.61443742  0.58106799     1.18400
C969        C  0.15649102  0.54910013  0.57960960     0.97600
C970        C  0.31187102  0.53851038  0.57709245     0.98300
N971        N  0.20380301  0.68623793  0.63927442    -0.06900
N972        N  0.18648053  0.71349201  0.64366750    -0.63200
N973        N  0.27573471  0.66146006  0.65424353    -0.05700
N974        N  0.29381247  0.67184197  0.66901414    -0.63900
N975        N  0.27685257  0.68381611  0.64008958    -0.06400
N976        N  0.29576442  0.70957625  0.64508007    -0.63500
N977        N  0.20268097  0.66411944  0.65355466    -0.05300
N978        N  0.18468826  0.67632944  0.66791787    -0.64200
Mn979      Mn  0.24068365  0.68295924  0.61639380     1.10700
C980        C  0.17440555  0.70704524  0.66151519     0.98800
C981        C  0.30635546  0.70187639  0.66319092     0.98900
N982        N  0.27303114  0.55482288  0.64247197    -0.06400
N983        N  0.29263259  0.52994915  0.64767694    -0.61800
N984        N  0.20005079  0.58182450  0.65553263    -0.05700
N985        N  0.18066040  0.57400356  0.67010681    -0.58500
N986        N  0.19957418  0.55732227  0.64228476    -0.07000
N987        N  0.17968145  0.53295107  0.64753376    -0.61400
N988        N  0.27357304  0.57965337  0.65554702    -0.06000
N989        N  0.29351320  0.57191737  0.66985247    -0.58500
Mn990      Mn  0.23627602  0.55316902  0.61931233     1.20200
Mn991      Mn  0.23793690  0.62168992  0.65507623     1.10100
Cl992      Cl  0.23843811  0.61809699  0.61805325    -0.86500
C993        C  0.30536804  0.54087524  0.66479206     0.95800
C994        C  0.16765021  0.54352320  0.66487984     0.95600
N995        N  0.19429003  0.00095143  0.99632999    -0.37200
N996        N  0.23893620  0.97785416  0.02555708    -0.57700
N997        N  0.29111602  0.98822563  0.99740531    -0.37200
N998        N  0.24550020  0.51419595  0.96936797    -0.57700
C999        C  0.17524907  0.00060529  0.01234986     0.26400
C1000       C  0.17887778  0.52257905  0.98437320     0.26400
C1001       C  0.30739964  0.98387007  0.01428938     0.26400
C1002       C  0.31153761  0.50144377  0.98394660     0.26400
C1003       C  0.21119960  0.96766807  0.03396485     0.35000
C1004       C  0.26301910  0.96110108  0.03460158     0.35000
C1005       C  0.21998910  0.52144284  0.95788361     0.35000
C1006       C  0.27181021  0.51417447  0.95779896     0.35000
C1007       C  0.14744947  0.01931084  0.00893377    -0.22400
C1008       C  0.15007118  0.53433080  0.99235354    -0.22400
C1009       C  0.33854446  0.99619271  0.01241776    -0.22400
C1010       C  0.34193802  0.50471196  0.99227943    -0.22400
C1011       C  0.21765694  0.94449119  0.04855503    -0.23500
C1012       C  0.25066396  0.94039324  0.04900339    -0.23500
C1013       C  0.23010349  0.52616180  0.93886584    -0.23500
C1014       C  0.26305708  0.52179625  0.93884310    -0.23500
C1015       C  0.18047118  0.98057478  0.02907588    -0.18800
C1016       C  0.18834849  0.52727340  0.96476732    -0.18800
C1017       C  0.30380673  0.51096923  0.96461932    -0.18800
C1018       C  0.29601298  0.96609475  0.03069966    -0.18800
H1019       H  0.12727210  0.02321979  0.01871776     0.14100
H1020       H  0.13161238  0.54955147  0.98544853     0.14100
H1021       H  0.35759393  0.99583855  0.02322272     0.14100
H1022       H  0.36362866  0.51452981  0.98564422     0.14100
H1023       H  0.20046153  0.93211600  0.05796794     0.12300
H1024       H  0.26403766  0.92421743  0.05883459     0.12300
H1025       H  0.21545486  0.53323818  0.92647713     0.12300
H1026       H  0.27884112  0.52460168  0.92641618     0.12300
H1027       H  0.21431729  0.98545861  0.99386266     0.25600
H1028       H  0.26874428  0.97764895  0.99402672     0.25600
N1029       N  0.19323560  0.73858128  0.00180860    -0.37200
N1030       N  0.24168622  0.72654852  0.97222607    -0.57700
N1031       N  0.29057139  0.73428765  0.00221709    -0.37200
N1032       N  0.24245827  0.74283914  0.03244446    -0.57700
C1033       C  0.17445490  0.72777137  0.98679116     0.26400
C1034       C  0.17484771  0.73860083  0.01807676     0.26400
C1035       C  0.30857781  0.72313835  0.98700406     0.26400
C1036       C  0.30867698  0.73069720  0.01848518     0.26400
C1037       C  0.21567030  0.72995181  0.96053316     0.35000
C1038       C  0.26786352  0.72979278  0.96071891     0.35000
C1039       C  0.21683066  0.75520285  0.04243152     0.35000
C1040       C  0.26898119  0.75151586  0.04286694     0.35000
C1041       C  0.14381834  0.72046357  0.99370586    -0.22400
C1042       C  0.14395740  0.72772053  0.01337910    -0.22400
C1043       C  0.33831388  0.71188271  0.99371381    -0.22400
C1044       C  0.33841120  0.71680323  0.01359004    -0.22400
C1045       C  0.22533962  0.73485233  0.94145109    -0.23500
C1046       C  0.25847822  0.73487633  0.94158087    -0.23500
C1047       C  0.22701094  0.77059766  0.05965373    -0.23500
C1048       C  0.26013732  0.76835168  0.05989378    -0.23500
C1049       C  0.18334184  0.72751388  0.96680800    -0.18800
C1050       C  0.18430849  0.75162594  0.03653799    -0.18800
C1051       C  0.30103000  0.74468899  0.03697513    -0.18800
C1052       C  0.30003800  0.72608009  0.96712321    -0.18800
H1053       H  0.12316015  0.71188269  0.98534256     0.14100
H1054       H  0.12345473  0.72577657  0.02304697     0.14100
H1055       H  0.35828144  0.70222149  0.98510393     0.14100
H1056       H  0.35850650  0.71196477  0.02327816     0.14100
H1057       H  0.21013402  0.73823877  0.92878258     0.12300
H1058       H  0.27387530  0.73806146  0.92901319     0.12300
H1059       H  0.21214713  0.78236347  0.07082358     0.12300
H1060       H  0.27588309  0.77823518  0.07119820     0.12300
H1061       H  0.21571910  0.74995064  0.00066444     0.25600
H1062       H  0.26955355  0.74866363  0.00115668     0.25600
N1063       N  0.45318274  0.69590899  0.90338887    -0.06700
N1064       N  0.42666698  0.71469037  0.90496947    -0.58800
N1065       N  0.52873564  0.67541301  0.91734806    -0.06300
N1066       N  0.05629647  0.67431993  0.92800703    -0.60900
N1067       N  0.52847837  0.69810343  0.90342452    -0.05900
N1068       N  0.05645165  0.71346667  0.90451961    -0.58800
N1069       N  0.45421021  0.67314386  0.91726691    -0.05600
N1070       N  0.42855099  0.67560223  0.92848423    -0.61300
C1071       C  0.41172111  0.70161722  0.92075284     0.95500
C1072       C  0.07227832  0.70064280  0.92011037     0.95300
N1073       N  0.53216288  0.57180347  0.90687794    -0.06900
N1074       N  0.05704778  0.54918018  0.90895935    -0.59400
N1075       N  0.45683878  0.59465559  0.91943272    -0.05000
N1076       N  0.43218036  0.59244762  0.93137911    -0.60600
N1077       N  0.45678773  0.56924312  0.90680314    -0.06900
N1078       N  0.43181671  0.54907727  0.91008064    -0.59600
N1079       N  0.53098644  0.59714101  0.91952982    -0.04600
N1080       N  0.05635536  0.59241336  0.93042730    -0.60700
Mn1081     Mn  0.49266280  0.63516321  0.91900136     1.18400
C1082       C  0.07276310  0.56476317  0.92394350     0.97600
C1083       C  0.41658880  0.56403074  0.92552385     0.98300
N1084       N  0.02866487  0.69049777  0.85746792    -0.06900
N1085       N  0.04825475  0.71511234  0.85208308    -0.63200
N1086       N  0.45562456  0.66694644  0.84443441    -0.05700
N1087       N  0.43693792  0.67481984  0.82953774    -0.63900
N1088       N  0.45468469  0.69156107  0.85761774    -0.06400
N1089       N  0.43517590  0.71609438  0.85198298    -0.63500
N1090       N  0.02855135  0.66566990  0.84440695    -0.05300
N1091       N  0.04798166  0.67327462  0.82984304    -0.64200
Mn1092     Mn  0.49098406  0.69601215  0.88068024     1.10700
C1093       C  0.06032243  0.70413122  0.83482601     0.98800
C1094       C  0.42399492  0.70550120  0.83444948     0.98900
N1095       N  0.45907681  0.56231081  0.86025598    -0.06400
N1096       N  0.44313509  0.53450540  0.85510141    -0.61800
N1097       N  0.02887136  0.58392205  0.84702094    -0.05700
N1098       N  0.04817132  0.57352973  0.83287767    -0.58500
N1099       N  0.02856446  0.56135636  0.86107561    -0.07000
N1100       N  0.04750497  0.53531256  0.85662529    -0.61400
N1101       N  0.45860796  0.58453857  0.84598527    -0.06000
N1102       N  0.44222307  0.57202533  0.83098430    -0.58500
Mn1103     Mn  0.49482119  0.56623837  0.88401916     1.20200
Mn1104     Mn  0.49361788  0.62729412  0.84522697     1.10100
Cl1105     Cl  0.49285890  0.63111651  0.88212520    -0.86500
C1106       C  0.43229794  0.54096471  0.83691158     0.95800
C1107       C  0.05954314  0.54304686  0.83891815     0.95600
N1108       N  0.14139821  0.87521003  0.72385188    -0.37200
N1109       N  0.12475911  0.92582716  0.75329229    -0.57700
N1110       N  0.11298284  0.87216900  0.78144176    -0.37200
N1111       N  0.12712126  0.82154944  0.75125505    -0.57700
C1112       C  0.13959740  0.90335246  0.71268358     0.26400
C1113       C  0.14140427  0.84782018  0.71170497     0.26400
C1114       C  0.09972454  0.89940737  0.79077360     0.26400
C1115       C  0.10040429  0.84375204  0.78947263     0.26400
C1116       C  0.13615382  0.94675826  0.73938699     0.35000
C1117       C  0.12165100  0.94501416  0.76966382     0.35000
C1118       C  0.14046206  0.80255282  0.73681748     0.35000
C1119       C  0.12435076  0.80084433  0.76674279     0.35000
C1120       C  0.13905768  0.89371190  0.69317492    -0.22400
C1121       C  0.14002712  0.85866253  0.69256610    -0.22400
C1122       C  0.07890242  0.88815973  0.80512115    -0.22400
C1123       C  0.07933967  0.85305148  0.80430295    -0.22400
C1124       C  0.14002355  0.97942230  0.74693022    -0.23500
C1125       C  0.13117063  0.97823899  0.76613205    -0.23500
C1126       C  0.14640049  0.76972316  0.74321008    -0.23500
C1127       C  0.13608101  0.76861162  0.76216167    -0.23500
C1128       C  0.14088961  0.93742246  0.71963313    -0.18800
C1129       C  0.14428081  0.81340728  0.71741114    -0.18800
C1130       C  0.10846077  0.80968413  0.78426908    -0.18800
C1131       C  0.10668637  0.93408824  0.78701761    -0.18800
H1132       H  0.13842259  0.91013521  0.68062478     0.14100
H1133       H  0.14009776  0.84297775  0.67948992     0.14100
H1134       H  0.06477037  0.90362833  0.81511914     0.14100
H1135       H  0.06564809  0.83628375  0.81356417     0.14100
H1136       H  0.15194196  0.50061935  0.74084383     0.12300
H1137       H  0.13603774  0.49815777  0.77799904     0.12300
H1138       H  0.15632241  0.74852655  0.73492429     0.12300
H1139       H  0.13653609  0.74641888  0.77138532     0.12300
H1140       H  0.14610832  0.87481118  0.73868285     0.25600
H1141       H  0.13178128  0.87292358  0.77145458     0.25600
N1142       N  0.37623923  0.92456657  0.74802270    -0.37200
N1143       N  0.35805719  0.87273190  0.71905266    -0.57700
N1144       N  0.37677940  0.82112888  0.74624092    -0.37200
N1145       N  0.39739783  0.87292788  0.77455895    -0.57700
C1146       C  0.37304367  0.94325305  0.73169900     0.26400
C1147       C  0.39388829  0.94324404  0.76087930     0.26400
C1148       C  0.37341505  0.80217215  0.72976399     0.26400
C1149       C  0.39369630  0.80220198  0.75903962     0.26400
C1150       C  0.34420230  0.90055738  0.71115317     0.35000
C1151       C  0.34489680  0.84525099  0.71003000     0.35000
C1152       C  0.39829116  0.90025709  0.78674226     0.35000
C1153       C  0.39780951  0.84502837  0.78589524     0.35000
C1154       C  0.38906086  0.97401621  0.73412920    -0.22400
C1155       C  0.40232710  0.97395225  0.75253134    -0.22400
C1156       C  0.38866018  0.77095085  0.73207245    -0.22400
C1157       C  0.40144698  0.77095221  0.75058041    -0.22400
C1158       C  0.32211165  0.89072547  0.69696970    -0.23500
C1159       C  0.32262974  0.85561688  0.69622346    -0.23500
C1160       C  0.39953915  0.88967945  0.80591745    -0.23500
C1161       C  0.39919421  0.85462718  0.80538402    -0.23500
C1162       C  0.35355483  0.93451565  0.71545156    -0.18800
C1163       C  0.39978953  0.93445582  0.78052126    -0.18800
C1164       C  0.39938648  0.81113437  0.77874041    -0.18800
C1165       C  0.35433565  0.81115696  0.71349119    -0.18800
H1166       H  0.38996279  0.49614605  0.72545550     0.14100
H1167       H  0.41206819  0.49546350  0.76161338     0.14100
H1168       H  0.38977905  0.75003524  0.72166895     0.14100
H1169       H  0.41432124  0.75002211  0.75722641     0.14100
H1170       H  0.30761364  0.90713359  0.68786574     0.12300
H1171       H  0.30852385  0.83960253  0.68651931     0.12300
H1172       H  0.40068348  0.90550975  0.81891315     0.12300
H1173       H  0.40020588  0.83810735  0.81789271     0.12300
H1174       H  0.36339134  0.90255515  0.75111137     0.25600
H1175       H  0.36446198  0.84355608  0.74959972     0.25600
N1176       N  0.09492536  0.62942934  0.22145772    -0.37200
N1177       N  0.10462194  0.57603180  0.24964312    -0.57700
N1178       N  0.11888556  0.62685420  0.27981472    -0.37200
N1179       N  0.11190070  0.68010177  0.25092029    -0.57700
C1180       C  0.09544961  0.60179126  0.20947031     0.26400
C1181       C  0.09777086  0.65736680  0.21023455     0.26400
C1182       C  0.12891227  0.59789065  0.28854114     0.26400
C1183       C  0.13328272  0.65333972  0.28917826     0.26400
C1184       C  0.09136752  0.55752296  0.23497091     0.35000
C1185       C  0.10377046  0.55624776  0.26560858     0.35000
C1186       C  0.10113487  0.70108275  0.23682258     0.35000
C1187       C  0.11532986  0.69957164  0.26717183     0.35000
C1188       C  0.09861683  0.61235072  0.19034890    -0.22400
C1189       C  0.09954150  0.64740518  0.19080625    -0.22400
C1190       C  0.14949882  0.60613969  0.30382884    -0.22400
C1191       C  0.15219173  0.64112890  0.30425242    -0.22400
C1192       C  0.08168931  0.52598674  0.24172427    -0.23500
C1193       C  0.08974290  0.52511148  0.26112059    -0.23500
C1194       C  0.09807653  0.73405577  0.24414306    -0.23500
C1195       C  0.10693452  0.73304616  0.26336420    -0.23500
C1196       C  0.09066841  0.56758721  0.21524431    -0.18800
C1197       C  0.09653536  0.69154209  0.21706990    -0.18800
C1198       C  0.12897094  0.68826770  0.28484615    -0.18800
C1199       C  0.11900584  0.56436173  0.28347536    -0.18800
H1200       H  0.09943508  0.59653765  0.17733556     0.14100
H1201       H  0.10106453  0.66358128  0.17819146     0.14100
H1202       H  0.16137956  0.58877347  0.31367925     0.14100
H1203       H  0.16657397  0.65588405  0.31444665     0.14100
H1204       H  0.06853775  0.00579673  0.23397291     0.12300
H1205       H  0.08713648  0.00319536  0.27078398     0.12300
H1206       H  0.09094780  0.75674107  0.23640030     0.12300
H1207       H  0.10779699  0.75465971  0.27329185     0.12300
H1208       H  0.08897903  0.62955355  0.23615431     0.25600
H1209       H  0.10092824  0.62859250  0.26925622     0.25600
N1210       N  0.36527092  0.57229431  0.24944697    -0.37200
N1211       N  0.34760719  0.62417319  0.27858214    -0.57700
N1212       N  0.36537356  0.67615783  0.25147320    -0.37200
N1213       N  0.38507861  0.62406734  0.22294847    -0.57700
C1214       C  0.36394363  0.55369274  0.26588554     0.26400
C1215       C  0.38093670  0.55322328  0.23584799     0.26400
C1216       C  0.36114128  0.69488687  0.26798150     0.26400
C1217       C  0.38379139  0.69474168  0.23930438     0.26400
C1218       C  0.33552827  0.59602805  0.28698615     0.35000
C1219       C  0.33342756  0.65122768  0.28748717     0.35000
C1220       C  0.38517273  0.59714277  0.21042484     0.35000
C1221       C  0.38769928  0.65238416  0.21205570     0.35000
C1222       C  0.37912316  0.52254706  0.26274122    -0.22400
C1223       C  0.38936973  0.52201974  0.24372776    -0.28400
C1224       C  0.37700065  0.72574527  0.26631358    -0.22400
C1225       C  0.39153745  0.72555060  0.24828135    -0.22400
C1226       C  0.31348065  0.60519462  0.30131874    -0.23500
C1227       C  0.31218486  0.64027546  0.30165082    -0.23500
C1228       C  0.38806648  0.60836526  0.19146103    -0.23500
C1229       C  0.38944976  0.64337890  0.19247462    -0.23500
C1230       C  0.34627913  0.56248199  0.28286110    -0.18800
C1231       C  0.38592574  0.56267142  0.21623240    -0.18800
C1232       C  0.39121133  0.68590473  0.21971619    -0.18800
C1233       C  0.34180036  0.68549402  0.28400939    -0.18800
H1234       H  0.38229185  0.00219915  0.27332058     0.14100
H1235       H  0.40311978  0.00132271  0.23726798     0.14100
H1236       H  0.37785624  0.74631971  0.27694385     0.14100
H1237       H  0.40564418  0.74610312  0.24230192     0.14100
H1238       H  0.30016232  0.58839169  0.31075327     0.12300
H1239       H  0.29776407  0.65591668  0.31140842     0.12300
H1240       H  0.38963103  0.59297141  0.17831367     0.12300
H1241       H  0.39208731  0.66022374  0.18020838     0.12300
H1242       H  0.35257170  0.59472704  0.24690574     0.25600
H1243       H  0.35306939  0.65392344  0.24779140     0.25600
N1244       N  0.45663325  0.80158215  0.09560594    -0.06700
N1245       N  0.43146868  0.78086522  0.09374543    -0.58800
N1246       N  0.53004752  0.82953517  0.08100094    -0.06300
N1247       N  0.05540440  0.82861369  0.06944716    -0.60900
N1248       N  0.53265982  0.80686773  0.09483557    -0.05900
N1249       N  0.05826707  0.79025529  0.09322867    -0.58800
N1250       N  0.45595909  0.82448442  0.08185176    -0.05600
N1251       N  0.43077583  0.82005988  0.07047587    -0.61300
C1252       C  0.41542405  0.79286080  0.07788754     0.95500
C1253       C  0.07334790  0.80374598  0.07758069     0.95300
N1254       N  0.52410389  0.93332317  0.09173225    -0.06900
N1255       N  0.05085987  0.95497950  0.08624349    -0.59400
N1256       N  0.45081304  0.90216014  0.08075768    -0.05000
N1257       N  0.42477613  0.90024766  0.06991418    -0.60600
N1258       N  0.44871770  0.92761036  0.09329349    -0.06900
N1259       N  0.42084731  0.94379856  0.09099675    -0.59600
N1260       N  0.52442931  0.90775513  0.07922231    -0.04600
N1261       N  0.04963662  0.91092486  0.06537100    -0.60700
Mn1262     Mn  0.49039149  0.86598998  0.08026119     1.18400
C1263       C  0.06478692  0.94007238  0.07033222     0.97600
C1264       C  0.40607557  0.92614357  0.07634638     0.98300
N1265       N  0.03072148  0.81130474  0.14015877    -0.06900
N1266       N  0.05016224  0.78652076  0.14561731    -0.63200
N1267       N  0.45794814  0.83000216  0.15491983    -0.05700
N1268       N  0.43943922  0.82059602  0.16960421    -0.63900
N1269       N  0.45936290  0.80533943  0.14172587    -0.06400
N1270       N  0.44191817  0.77909916  0.14721510    -0.63500
N1271       N  0.03050914  0.83601773  0.15330008    -0.05300
N1272       N  0.04957301  0.82799504  0.16801240    -0.64200
Mn1273     Mn  0.49527315  0.80496490  0.11813781     1.10700
C1274       C  0.06200938  0.79714136  0.16297672     0.98800
C1275       C  0.42912284  0.78894415  0.16448436     0.98900
N1276       N  0.45212128  0.93521928  0.13952276    -0.06400
N1277       N  0.43410855  0.96151335  0.14496414    -0.61800
N1278       N  0.02834640  0.91850758  0.15113351    -0.05700
N1279       N  0.04590318  0.93127246  0.16555007    -0.58500
N1280       N  0.02740323  0.94021553  0.13660520    -0.07000
N1281       N  0.04447360  0.96762806  0.14087043    -0.61400
N1282       N  0.45380641  0.91282433  0.15366460    -0.06000
N1283       N  0.43708545  0.92383264  0.16888206    -0.58500
Mn1284     Mn  0.48741491  0.93474818  0.11539137     1.20200
Mn1285     Mn  0.49231037  0.87357358  0.15412855     1.10100
Cl1286     Cl  0.49135948  0.86985868  0.11713070    -0.86500
C1287       C  0.42454655  0.95408235  0.16326173     0.95800
C1288       C  0.05588880  0.96193201  0.15898199     0.95600
C1289       C  0.39506480  0.53551550  0.20177242    -0.06700
C1290       C  0.42621401  0.52157073  0.20289264    -0.17800
C1291       C  0.43625294  0.99326035  0.19202360     0.10500
C1292       C  0.41506002  0.98131852  0.17729320    -0.06600
C1293       C  0.38348387  0.49600807  0.17494208    -0.17800
C1294       C  0.37327612  0.52219195  0.18771378     0.10600
S1295       S  0.47451662  0.97342001  0.19708103    -0.32800
S1296       S  0.33222167  0.53712438  0.18531460    -0.32800
H1297       H  0.32853651  0.54977076  0.20440531     0.28600
H1298       H  0.46030197  0.94247699  0.20255275     0.28600
H1299       H  0.44300939  0.53145169  0.21366907     0.19200
H1300       H  0.36700108  0.48650934  0.16388668     0.19200
C1301       C  0.41888577  0.76365319  0.17900164    -0.06700
C1302       C  0.43956508  0.73596210  0.18258376    -0.17800
C1303       C  0.43232505  0.71176937  0.19670814     0.10500
C1304       C  0.40232134  0.71339954  0.20644414    -0.06600
C1305       C  0.38158680  0.74108406  0.20286158    -0.17800
C1306       C  0.38975160  0.76650247  0.18955740     0.10600
S1307       S  0.46270688  0.68007262  0.20194902    -0.32800
S1308       S  0.36142960  0.80111162  0.18653025    -0.32800
H1309       H  0.37213998  0.81233934  0.16831737     0.28600
H1310       H  0.45394428  0.67567288  0.22154390     0.28600
H1311       H  0.46213229  0.73370277  0.17471754     0.19200
H1312       H  0.35862925  0.74268454  0.21037216     0.19200
C1313       C  0.06462874  0.99001557  0.17253164    -0.06700
C1314       C  0.09186634  0.98583336  0.18440557    -0.17800
C1315       C  0.10392278  0.51210425  0.19716452     0.10500
C1316       C  0.08403947  0.54117796  0.19990397    -0.06600
C1317       C  0.05645261  0.54486426  0.18824490    -0.17800
C1318       C  0.04795053  0.52016906  0.17433749     0.10600
S1319       S  0.13906592  0.00492573  0.21040040    -0.32800
S1320       S  0.01243786  0.52888062  0.15990844    -0.32800
H1321       H  0.99907530  0.99694903  0.15866109     0.28600
H1322       H  0.14887607  0.54151419  0.21148167     0.28600
H1323       H  0.10630582  0.96284900  0.18299009     0.19200
H1324       H  0.04119229  0.56715121  0.19014313     0.19200
C1325       C  0.08887969  0.71895269  0.20301895    -0.06700
C1326       C  0.05798994  0.73354031  0.20391388    -0.17800
C1327       C  0.04916551  0.76014268  0.19167500     0.10500
C1328       C  0.07130592  0.77182639  0.17761497    -0.06600
C1329       C  0.10210997  0.75707098  0.17653972    -0.17800
C1330       C  0.11151852  0.73150173  0.18948165     0.10600
S1331       S  0.00949619  0.77822501  0.19499350    -0.32800
S1332       S  0.15257579  0.71620103  0.18793267    -0.32800
H1333       H  0.15506052  0.70444302  0.20712702     0.28600
H1334       H  0.00276320  0.78148161  0.17505271     0.28600
H1335       H  0.04072266  0.72432461  0.21446417     0.19200
H1336       H  0.11911285  0.76592785  0.16574571     0.19200
C1337       C  0.07188052  0.51619767  0.82549683    -0.06700
C1338       C  0.09212690  0.49076435  0.83313512    -0.17800
C1339       C  0.10602467  0.96515377  0.81997719     0.10500
C1340       C  0.09448917  0.96101714  0.80070711    -0.06600
C1341       C  0.07092243  0.98358935  0.79377227    -0.17800
C1342       C  0.06287735  0.51413700  0.80558833     0.10600
S1343       S  0.13689943  0.93825474  0.83025765    -0.32800
S1344       S  0.54120186  0.54948174  0.79348349    -0.32800
H1345       H  0.51654925  0.54778641  0.80744378     0.28600
H1346       H  0.15290729  0.93101843  0.81264687     0.28600
H1347       H  0.09921675  0.49202835  0.84833393     0.19200
H1348       H  0.06176521  0.98035137  0.77906430     0.19200
C1349       C  0.07471652  0.72824307  0.82081861    -0.06700
C1350       C  0.09901326  0.75036168  0.82756470    -0.17800
C1351       C  0.11129391  0.77621647  0.81576537     0.10500
C1352       C  0.09789032  0.78141948  0.79711074    -0.06600
C1353       C  0.07376056  0.75925510  0.79029612    -0.17800
C1354       C  0.06249540  0.73249222  0.80172462     0.10600
S1355       S  0.14401896  0.80167355  0.82527523    -0.32800
S1356       S  0.03092070  0.70633868  0.79158997    -0.32800
H1357       H  0.55211867  0.68033620  0.79253577     0.28600
H1358       H  0.15841666  0.80834496  0.80717983     0.28600
H1359       H  0.10860821  0.74736490  0.84214633     0.19200
H1360       H  0.06353069  0.76297183  0.77592817     0.19200
C1361       C  0.40856316  0.96199685  0.79491779    -0.06700
C1362       C  0.43860967  0.96063582  0.80438531    -0.17800
C1363       C  0.44798354  0.98582848  0.81790683     0.10500
C1364       C  0.42339447  0.51349862  0.82293346    -0.06600
C1365       C  0.39292942  0.51481947  0.81403469    -0.17800
C1366       C  0.38744926  0.98947194  0.79920921     0.10600
S1367       S  0.48743818  0.98113366  0.82880298    -0.32800
S1368       S  0.34772787  0.99138590  0.78834262    -0.32800
H1369       H  0.33805600  0.02236682  0.79707407     0.28600
H1370       H  0.49032901  0.51659714  0.83136144     0.28600
H1371       H  0.45503106  0.93979936  0.80108691     0.19200
H1372       H  0.37692156  0.53585646  0.81757580     0.19200
C1373       C  0.40673459  0.78327476  0.79251252    -0.06700
C1374       C  0.38228547  0.75967445  0.79664006    -0.17800
C1375       C  0.38738586  0.73327444  0.80983945     0.10500
C1376       C  0.41736076  0.73086306  0.81941676    -0.06600
C1377       C  0.44190049  0.75423193  0.81516412    -0.17800
C1378       C  0.43712223  0.78007766  0.80165618     0.10600
S1379       S  0.35426221  0.70480884  0.81453879    -0.32800
S1380       S  0.47066157  0.80805683  0.79690127    -0.32800
H1381       H  0.46179656  0.81626850  0.77775197     0.28600
H1382       H  0.37292751  0.67659117  0.82008349     0.28600
H1383       H  0.35897698  0.76203055  0.78958304     0.19200
H1384       H  0.46511033  0.75218480  0.82239314     0.19200
C1385       C  0.15861433  0.76507877  0.04957645    -0.06700
C1386       C  0.15039394  0.79954955  0.04789213    -0.17800
C1387       C  0.12442561  0.81349942  0.05819848     0.10500
C1388       C  0.10483263  0.79209778  0.06969066    -0.06600
C1389       C  0.11437296  0.75805059  0.07234785    -0.17800
C1390       C  0.14134583  0.74445146  0.06264668     0.10600
S1391       S  0.11847425  0.85890973  0.05644597    -0.32800
S1392       S  0.15139470  0.70036707  0.06686407    -0.32800
H1393       H  0.18362135  0.70165132  0.06064034     0.28600
H1394       H  0.10887360  0.86332207  0.07597718     0.28600
H1395       H  0.16437803  0.81572138  0.03839586     0.19200
H1396       H  0.10013101  0.74156612  0.08150214     0.19200
C1397       C  0.32836765  0.75805021  0.04891360    -0.06700
C1398       C  0.33898367  0.74084296  0.06560417    -0.17800
C1399       C  0.36660088  0.75173330  0.07594955     0.10500
C1400       C  0.38450736  0.78004770  0.06921639    -0.06600
C1401       C  0.37298782  0.79734131  0.05270691    -0.17800
C1402       C  0.34539477  0.78697596  0.04271697     0.10600
S1403       S  0.37771042  0.72819688  0.09727203    -0.32800
S1404       S  0.33391429  0.81112748  0.02154653    -0.32800
H1405       H  0.30043779  0.80701468  0.02373143     0.28600
H1406       H  0.37934046  0.75751074  0.10923863     0.28600
H1407       H  0.32589876  0.71863069  0.07045021     0.19200
H1408       H  0.38568996  0.81931507  0.04721151     0.19200
C1409       C  0.15743629  0.72431474  0.95175636    -0.06700
C1410       C  0.15650954  0.69496193  0.93985517    -0.17800
C1411       C  0.13048748  0.68890622  0.92727032     0.10500
C1412       C  0.10406701  0.71167747  0.92727743    -0.06600
C1413       C  0.10613057  0.74229041  0.93788174    -0.17800
C1414       C  0.13293929  0.74923203  0.94972058     0.10600
S1415       S  0.13208176  0.65169849  0.91159878    -0.32800
S1416       S  0.13402107  0.78967962  0.96243198    -0.32800
H1417       H  0.16787499  0.79208993  0.96304907     0.28600
H1418       H  0.11009532  0.66368572  0.89760683     0.28600
H1419       H  0.17586802  0.67639293  0.94065241     0.19200
H1420       H  0.08611596  0.76013796  0.93766881     0.19200
C1421       C  0.37985107  0.71185239  0.92813945    -0.06700
C1422       C  0.37723596  0.74232791  0.93886168    -0.17800
C1423       C  0.35039909  0.74868530  0.95076457     0.10500
C1424       C  0.32610679  0.72359573  0.95232055    -0.06600
C1425       C  0.32779135  0.69419901  0.94055214    -0.17800
C1426       C  0.35409473  0.68841748  0.92822765     0.10600
S1427       S  0.34943023  0.78830357  0.96438637    -0.32800
S1428       S  0.35397471  0.65023375  0.91332624    -0.32800
H1429       H  0.37428815  0.66293860  0.89872331     0.28600
H1430       H  0.31571583  0.79010642  0.96644840     0.28600
H1431       H  0.39696896  0.76040088  0.93879455     0.19200
H1432       H  0.30891876  0.67520105  0.94139555     0.19200
C1433       C  0.09342970  0.95271558  0.05960922    -0.06700
C1434       C  0.11698162  0.97221094  0.06938546    -0.17800
C1435       C  0.14565560  0.98192249  0.06000129     0.10500
C1436       C  0.15153945  0.97076219  0.04063305    -0.06600
C1437       C  0.12801749  0.95136750  0.03098046    -0.17800
C1438       C  0.09884336  0.94338379  0.03985862     0.10600
S1439       S  0.17458635  0.50826658  0.07493104    -0.32800
S1440       S  0.06902550  0.92297369  0.02455241    -0.32800
H1441       H  0.04308206  0.94236287  0.03198035     0.28600
H1442       H  0.18932989  0.52400138  0.05897735     0.28600
H1443       H  0.11382040  0.48013423  0.08541273     0.19200
H1444       H  0.13195423  0.94351049  0.01596877     0.19200
C1445       C  0.37500271  0.93457304  0.06668891    -0.06700
C1446       C  0.36837715  0.91766285  0.04891831    -0.17800
C1447       C  0.34142683  0.92571417  0.03777147     0.10500
C1448       C  0.32052855  0.95189081  0.04410937    -0.06600
C1449       C  0.32577624  0.96766345  0.06229488    -0.17800
C1450       C  0.35241348  0.95878332  0.07385174     0.10600
S1451       S  0.33599069  0.90303061  0.01498189    -0.32800
S1452       S  0.35975203  0.48333674  0.09549379    -0.32800
H1453       H  0.36594652  0.45364514  0.10621707     0.28600
H1454       H  0.30210470  0.90512474  0.01485758     0.28600
H1455       H  0.38469992  0.89835014  0.04325017     0.19200
H1456       H  0.31230469  0.49014683  0.06590185     0.19200
C1457       C  0.16313036  0.53861044  0.95090626    -0.06700
C1458       C  0.14598982  0.51349410  0.94057542    -0.17800
C1459       C  0.11694313  0.52116640  0.93112037     0.10500
C1460       C  0.10472720  0.55487915  0.93188861    -0.06600
C1461       C  0.12296451  0.58022527  0.94148884    -0.17800
C1462       C  0.15223359  0.57265434  0.95060089     0.10600
S1463       S  0.09536823  0.48613632  0.92012041    -0.32800
S1464       S  0.17308537  0.60689311  0.96304035    -0.32800
H1465       H  0.20396816  0.59206551  0.96211622     0.28600
H1466       H  0.06608857  0.49420694  0.92948947     0.28600
H1467       H  0.15422333  0.48725411  0.94098790     0.19200
H1468       H  0.11400988  0.60615009  0.94235544     0.19200
C1469       C  0.38651263  0.55130045  0.93480830    -0.06700
C1470       C  0.37558444  0.51826664  0.93008637    -0.17800
C1471       C  0.34804079  0.50451834  0.93890692     0.10500
C1472       C  0.33031536  0.52456525  0.95238426    -0.06600
C1473       C  0.34025880  0.55791667  0.95643933    -0.17800
C1474       C  0.36840813  0.57110848  0.94843098     0.10600
S1475       S  0.33791920  0.46091171  0.93302099    -0.32800
S1476       S  0.38005576  0.61270599  0.95726411    -0.32800
H1477       H  0.40810669  0.60016280  0.96633361     0.28600
H1478       H  0.30511009  0.46278059  0.93792390     0.28600
H1479       H  0.38906638  0.50259153  0.91984070     0.19200
H1480       H  0.32693296  0.57312176  0.96701305     0.19200
C1481       C  0.15908285  0.51807420  0.67965361    -0.06700
C1482       C  0.18251439  0.49346049  0.68418008    -0.17800
C1483       C  0.17847396  0.98043481  0.70465639     0.10500
C1484       C  0.14783181  0.96489989  0.70549858    -0.06600
C1485       C  0.12298909  0.97656858  0.69329738    -0.17800
C1486       C  0.12816881  0.00339120  0.68034964     0.10600
S1487       S  0.21244592  0.96615439  0.71891190    -0.32800
S1488       S  0.09536607  0.01528695  0.66448214    -0.32800
H1489       H  0.11479586  0.57198963  0.67509814     0.28600
H1490       H  0.20369667  0.93156801  0.71910706     0.28600
H1491       H  0.20608348  0.49454506  0.67736840     0.19200
H1492       H  0.09948791  0.96456219  0.69383061     0.19200
C1493       C  0.15077475  0.78709717  0.70214370    -0.06700
C1494       C  0.18151985  0.78586252  0.69367244    -0.17800
C1495       C  0.18969916  0.76017865  0.68018975     0.10500
C1496       C  0.16665512  0.73499233  0.67524180    -0.06600
C1497       C  0.13592493  0.73626444  0.68366249    -0.17800
C1498       C  0.12751791  0.76241794  0.69674883     0.10600
S1499       S  0.23001122  0.75893586  0.67009976    -0.32800
S1500       S  0.08684802  0.76289901  0.70610626    -0.32800
H1501       H  0.08472337  0.79841107  0.70882799     0.28600
H1502       H  0.24156344  0.78867984  0.67935001     0.28600
H1503       H  0.19922809  0.80477546  0.69795054     0.19200
H1504       H  0.11822489  0.71705528  0.67978761     0.19200
C1505       C  0.34240732  0.96254385  0.70256330    -0.06700
C1506       C  0.32211943  0.98786729  0.71039762    -0.17800
C1507       C  0.31109126  0.01493851  0.69906056     0.10500
C1508       C  0.32023421  0.51685664  0.67869813    -0.06600
C1509       C  0.34290027  0.49319992  0.67147734    -0.17800
C1510       C  0.35243927  0.96487341  0.68300891     0.10600
S1511       S  0.28567291  0.04608034  0.71093996    -0.32800
S1512       S  0.38532583  0.43809276  0.67373980    -0.32800
H1513       H  0.38520095  0.95089911  0.65493317     0.28600
H1514       H  0.29993185  0.57121967  0.70743012     0.28600
H1515       H  0.31494732  0.98656785  0.72555412     0.19200
H1516       H  0.35074775  0.49503180  0.65648433     0.19200
C1517       C  0.31992075  0.72825801  0.67670238    -0.06700
C1518       C  0.34079314  0.75293535  0.66902995    -0.17800
C1519       C  0.35292602  0.77975551  0.68060993     0.10500
C1520       C  0.34294859  0.78314381  0.70022933    -0.06600
C1521       C  0.32202036  0.75867948  0.70788479    -0.17800
C1522       C  0.31088163  0.73120250  0.69658193     0.10600
S1523       S  0.38125995  0.80845118  0.66952865    -0.32800
S1524       S  0.28381750  0.70212184  0.70830243    -0.32800
H1525       H  0.30542074  0.67452770  0.70635221     0.28600
H1526       H  0.39810580  0.81691360  0.68669122     0.28600
H1527       H  0.34807014  0.75106985  0.65389393     0.19200
H1528       H  0.31438049  0.76097687  0.72294410     0.19200
C1529       C  0.15388980  0.98287138  0.32073922    -0.06700
C1530       C  0.12872276  0.00466927  0.32669584    -0.17800
C1531       C  0.11600732  0.53145788  0.31529306     0.10500
C1532       C  0.12851077  0.53559937  0.29633142    -0.06600
C1533       C  0.15225938  0.51288462  0.28951010    -0.17800
C1534       C  0.16751409  0.98710671  0.30202566     0.10600
S1535       S  0.08449184  0.55831078  0.32520348    -0.32800
S1536       S  0.20230950  0.96358839  0.29359921    -0.32800
H1537       H  0.21962844  0.96766955  0.31113143     0.28600
H1538       H  0.07044009  0.56699562  0.30727612     0.28600
H1539       H  0.11838484  0.00191760  0.34108829     0.19200
H1540       H  0.16217805  0.51615738  0.27504494     0.19200
C1541       C  0.14075380  0.71457645  0.29903747    -0.06700
C1542       C  0.12404824  0.71959902  0.31663125    -0.17800
C1543       C  0.13252190  0.74597541  0.32964634     0.10500
C1544       C  0.15810574  0.76815509  0.32497010    -0.06600
C1545       C  0.17469478  0.76310144  0.30733770    -0.17800
C1546       C  0.16690559  0.73618776  0.29462850     0.10600
S1547       S  0.10909983  0.75065680  0.35164085    -0.32800
S1548       S  0.19144860  0.73042378  0.27313170    -0.32800
H1549       H  0.18808839  0.69479808  0.27194929     0.28600
H1550       H  0.11268448  0.78616861  0.35354999     0.28600
H1551       H  0.10383964  0.70325880  0.32004878     0.19200
H1552       H  0.19454692  0.77966746  0.30369977     0.19200
C1553       C  0.31807665  0.98091231  0.32090742    -0.06700
C1554       C  0.33780936  0.50712757  0.32788843    -0.17800
C1555       C  0.34820849  0.53355243  0.31590641     0.10500
C1556       C  0.33761638  0.53451847  0.29634404    -0.06600
C1557       C  0.31865864  0.50775296  0.28899530    -0.17800
C1558       C  0.31141845  0.97931215  0.30066268     0.10600
S1559       S  0.37474941  0.56513250  0.32649303    -0.32800
S1560       S  0.29143022  0.94406499  0.28880647    -0.32800
H1561       H  0.31415046  0.92010580  0.29547469     0.28600
H1562       H  0.39072954  0.57337614  0.30913071     0.28600
H1563       H  0.34483971  0.50738896  0.34310828     0.19200
H1564       H  0.31086799  0.50809568  0.27391174     0.19200
C1565       C  0.33090337  0.71276665  0.29789759    -0.06700
C1566       C  0.30607029  0.73478099  0.29206523    -0.17800
C1567       C  0.29519528  0.76148232  0.30425441     0.10500
C1568       C  0.30947890  0.76637711  0.32286284    -0.06600
C1569       C  0.33379688  0.74373802  0.32882608    -0.17800
C1570       C  0.34500992  0.71749392  0.31648481     0.10600
S1571       S  0.26215669  0.78790127  0.29608996    -0.32800
S1572       S  0.37762714  0.69120041  0.32521480    -0.32800
H1573       H  0.39151364  0.68427761  0.30692147     0.28600
H1574       H  0.25646715  0.77084649  0.27829002     0.28600
H1575       H  0.29520369  0.73086876  0.27786117     0.19200
H1576       H  0.34470920  0.74703195  0.34308016     0.19200
C1577       C  0.07282902  0.71261910  0.54705592    -0.06700
C1578       C  0.08906562  0.73753239  0.55814522    -0.17800
C1579       C  0.11823815  0.73008883  0.56766071     0.10500
C1580       C  0.13144234  0.69683579  0.56618779    -0.06600
C1581       C  0.11433411  0.67185509  0.55556270    -0.17800
C1582       C  0.08511423  0.67910257  0.54638393     0.10600
S1583       S  0.13852219  0.76477213  0.57988142    -0.32800
S1584       S  0.06607445  0.64506083  0.53273588    -0.32800
H1585       H  0.03441300  0.65765616  0.53431747     0.28600
H1586       H  0.16865887  0.75759925  0.57131396     0.28600
H1587       H  0.07989931  0.76343935  0.55844075     0.19200
H1588       H  0.12398022  0.64627313  0.55407835     0.19200
C1589       C  0.40383627  0.71237194  0.54382464    -0.06700
C1590       C  0.38880406  0.73569160  0.55654196    -0.17800
C1591       C  0.36122909  0.72664653  0.56711871     0.10500
C1592       C  0.34862668  0.69318145  0.56525701    -0.06600
C1593       C  0.36462277  0.66970210  0.55294299    -0.17800
C1594       C  0.39189635  0.67886834  0.54232291     0.10600
S1595       S  0.34227240  0.75971465  0.58149562    -0.32800
S1596       S  0.40902512  0.64758320  0.52585567    -0.32800
H1597       H  0.44116746  0.65821007  0.52830319     0.28600
H1598       H  0.31163990  0.75443780  0.57311918     0.28600
H1599       H  0.39774900  0.76159078  0.55751914     0.19200
H1600       H  0.35562702  0.64391531  0.55131352     0.19200
C1601       C  0.13137583  0.80558968  0.43776872    -0.06700
C1602       C  0.10981942  0.78328964  0.42825627    -0.17800
C1603       C  0.08177792  0.77174995  0.43755331     0.10500
C1604       C  0.07432316  0.78382505  0.45649501    -0.06600
C1605       C  0.09532210  0.80672081  0.46574712    -0.17800
C1606       C  0.12402981  0.81678237  0.45701465     0.10600
S1607       S  0.05699495  0.74119535  0.42470536    -0.32800
S1608       S  0.15080828  0.84202544  0.47204080    -0.32800
H1609       H  0.17824990  0.82233179  0.46740641     0.28600
H1610       H  0.04655617  0.72365900  0.44127779     0.28600
H1611       H  0.11502189  0.77440276  0.41358710     0.19200
H1612       H  0.09006105  0.81540348  0.48046487     0.19200
C1613       C  0.40391284  0.78334427  0.45292382    -0.06700
C1614       C  0.38499406  0.80847863  0.46200370    -0.17800
C1615       C  0.35553801  0.81886297  0.45416898     0.10500
C1616       C  0.34525142  0.80575579  0.43580685    -0.06600
C1617       C  0.36485225  0.78129571  0.42635611    -0.17800
C1618       C  0.39365259  0.76944929  0.43484827     0.10600
S1619       S  0.33150675  0.84665019  0.46946342    -0.32800
S1620       S  0.41540627  0.73618536  0.42200461    -0.32800
H1621       H  0.43401662  0.72426753  0.43761129     0.28600
H1622       H  0.30341566  0.82686596  0.46735635     0.28600
H1623       H  0.39228370  0.81844642  0.47613766     0.19200
H1624       H  0.35744464  0.77082649  0.41238338     0.19200
C1625       C  0.12444125  0.53853240  0.57255911    -0.06700
C1626       C  0.12111988  0.50619449  0.56393856    -0.17800
C1627       C  0.09339675  0.49771095  0.55325454     0.10500
C1628       C  0.06876494  0.52236886  0.55080263    -0.06600
C1629       C  0.07102685  0.55366009  0.56079849    -0.17800
C1630       C  0.09838277  0.56175792  0.57187191     0.10600
S1631       S  0.09305644  0.96034447  0.54027919    -0.32800
S1632       S  0.09886856  0.60226228  0.58455417    -0.32800
H1633       H  0.12099060  0.59274828  0.59907769     0.28600
H1634       H  0.05926351  0.95746427  0.53940671     0.28600
H1635       H  0.14090526  0.48810851  0.56465842     0.19200
H1636       H  0.05196943  0.57244201  0.55928472     0.19200
C1637       C  0.40032846  0.51876374  0.54744914    -0.06700
C1638       C  0.37709868  0.49275846  0.54851606    -0.17800
C1639       C  0.34911260  0.49680605  0.55983614     0.10500
C1640       C  0.34406194  0.52764696  0.57021334    -0.06600
C1641       C  0.36840013  0.55238863  0.57033286    -0.17800
C1642       C  0.39629232  0.54842153  0.55909336     0.10600
S1643       S  0.31877566  0.96557355  0.55906358    -0.32800
S1644       S  0.42468707  0.58314407  0.55949222    -0.32800
H1645       H  0.43456900  0.57985719  0.53999934     0.28600
H1646       H  0.30752367  0.46890702  0.57774434     0.28600
H1647       H  0.37910105  0.97242103  0.53960125     0.19200
H1648       H  0.36462404  0.57615383  0.57824322     0.19200
C1649       C  0.07181389  0.99177383  0.45130841    -0.06700
C1650       C  0.07906466  0.95692658  0.45085102    -0.17800
C1651       C  0.10488673  0.94414813  0.43995067     0.10500
C1652       C  0.12558531  0.96680928  0.43007644    -0.06600
C1653       C  0.11741698  0.00160831  0.42969896    -0.17800
C1654       C  0.09044689  0.01425308  0.43995031     0.10600
S1655       S  0.10900592  0.89847114  0.43862673    -0.32800
S1656       S  0.08246669  0.55816537  0.44170888    -0.32800
H1657       H  0.04942031  0.55578631  0.44604049     0.28600
H1658       H  0.11995810  0.89763393  0.41923165     0.28600
H1659       H  0.06421136  0.93942468  0.45900724     0.19200
H1660       H  0.13334007  0.51974439  0.42385455     0.19200
C1661       C  0.34601267  0.97034330  0.42823036    -0.06700
C1662       C  0.35238627  0.00552144  0.42846674    -0.17800
C1663       C  0.37972767  0.01863228  0.43804732     0.10500
C1664       C  0.40046021  0.99617688  0.44808957    -0.06600
C1665       C  0.39521773  0.96102046  0.44671041    -0.17800
C1666       C  0.36875132  0.94781472  0.43654520     0.10600
S1667       S  0.38600233  0.56263893  0.43848726    -0.32800
S1668       S  0.36524528  0.90214003  0.43359231    -0.32800
H1669       H  0.39204914  0.89301004  0.44502789     0.28600
H1670       H  0.41947009  0.56121472  0.44177017     0.28600
H1671       H  0.33550723  0.02293853  0.42171464     0.19200
H1672       H  0.41183407  0.94392600  0.45393538     0.19200
N1673       N  0.93659928  0.51251754  0.49914080    -0.37200
N1674       N  0.48512706  0.50706861  0.46641453    -0.57700
N1675       N  0.53357055  0.01262156  0.49698051    -0.37200
N1676       N  0.48390486  0.01936877  0.52703210    -0.57700
C1677       C  0.91850762  0.51488039  0.48274045     0.26400
C1678       C  0.91762917  0.02337437  0.51358765     0.26400
C1679       C  0.55251001  0.51163325  0.48041157     0.26400
C1680       C  0.55143412  0.02327333  0.51239978     0.26400
C1681       C  0.96060812  0.49761461  0.45848252     0.35000
C1682       C  0.51091909  0.49733492  0.45558343     0.35000
C1683       C  0.95812932  0.01797273  0.54026641     0.35000
C1684       C  0.51019731  0.01660589  0.53856530     0.35000
C1685       C  0.88766619  0.52578390  0.48771125    -0.22400
C1686       C  0.88739947  0.03257363  0.50667791    -0.22400
C1687       C  0.58285641  0.52351968  0.48551002    -0.22400
C1688       C  0.58172351  0.03309003  0.50594652    -0.22400
C1689       C  0.97048259  0.48326915  0.44090450    -0.23500
C1690       C  0.50087740  0.48534253  0.43752523    -0.23500
C1691       C  0.96721959  0.01380291  0.55953028    -0.23500
C1692       C  0.50085514  0.01070124  0.55761459    -0.23500
C1693       C  0.92800934  0.50369593  0.46383952    -0.18800
C1694       C  0.92598369  0.02160105  0.53362790    -0.18800
C1695       C  0.54237092  0.02132413  0.53229316    -0.18800
C1696       C  0.54349179  0.50056929  0.46147626    -0.18800
H1697       H  0.86711938  0.52913323  0.47820178     0.14100
H1698       H  0.86673506  0.04093158  0.51511779     0.14100
H1699       H  0.60342137  0.52722312  0.47610523     0.14100
H1700       H  0.60169355  0.04240042  0.51465994     0.14100
H1701       H  0.95548184  0.47476220  0.42889622     0.12300
H1702       H  0.51580660  0.47636648  0.42559031     0.12300
H1703       H  0.95158034  0.01139695  0.57205305     0.12300
H1704       H  0.51632364  0.00773604  0.57020437     0.12300
H1705       H  0.95889636  0.50072869  0.50011988     0.25600
H1706       H  0.51170292  0.99988152  0.49770248     0.25600
N1707       N  0.53660518  0.24702723  0.49886613    -0.37200
N1708       N  0.98824188  0.23184396  0.52987919    -0.57700
N1709       N  0.93940894  0.25123433  0.50180047    -0.37200
N1710       N  0.98844875  0.26758955  0.47292768    -0.57700
C1711       C  0.55450082  0.23048538  0.51232894     0.26400
C1712       C  0.55467114  0.24897632  0.48251676     0.26400
C1713       C  0.92080076  0.23543851  0.51514691     0.26400
C1714       C  0.92122392  0.25514559  0.48556847     0.26400
C1715       C  0.51336632  0.22608087  0.53848795     0.35000
C1716       C  0.96209317  0.22808342  0.54135254     0.35000
C1717       C  0.51473502  0.27679198  0.46085606     0.35000
C1718       C  0.96239951  0.28148495  0.46416717     0.35000
C1719       C  0.58421331  0.22175708  0.50436952    -0.22400
C1720       C  0.58426327  0.23333118  0.48556254    -0.22400
C1721       C  0.89031236  0.22985255  0.50730789    -0.22400
C1722       C  0.89071694  0.24190087  0.48865702    -0.22400
C1723       C  0.50346098  0.21985438  0.55738208    -0.23500
C1724       C  0.97169437  0.22122927  0.56027658    -0.23500
C1725       C  0.50565298  0.29874470  0.44614278    -0.23500
C1726       C  0.97208460  0.30327032  0.44955934    -0.23500
C1727       C  0.54563007  0.22508981  0.53197624    -0.18800
C1728       C  0.54679355  0.26811037  0.46581344    -0.18800
C1729       C  0.93009858  0.27351318  0.46877574    -0.18800
C1730       C  0.92991886  0.22721320  0.53449457    -0.18800
H1731       H  0.60410890  0.20891982  0.51143696     0.14100
H1732       H  0.60417679  0.23130123  0.47541940     0.14100
H1733       H  0.86954904  0.21871193  0.51429246     0.14100
H1734       H  0.87048666  0.24172950  0.47865958     0.14100
H1735       H  0.51855331  0.21533832  0.56998171     0.12300
H1736       H  0.95643735  0.21589703  0.57264995     0.12300
H1737       H  0.52132213  0.31296848  0.43662510     0.12300
H1738       H  0.95679677  0.31784677  0.43991564     0.12300
H1739       H  0.51534680  0.26055950  0.50153717     0.25600
H1740       H  0.96165726  0.26246666  0.50437411     0.25600
N1741       N  0.77671639  0.32257783  0.40738449    -0.06700
N1742       N  0.80210039  0.30318588  0.41152303    -0.58800
N1743       N  0.70122742  0.34761788  0.41932569    -0.06300
N1744       N  0.67660904  0.34608671  0.43133322    -0.60900
N1745       N  0.70103105  0.32165676  0.40706098    -0.05900
N1746       N  0.67594212  0.30175104  0.41069769    -0.58800
N1747       N  0.77529977  0.34847914  0.41967110    -0.05600
N1748       N  0.79936014  0.34745555  0.43213334    -0.61300
C1749       C  0.81588199  0.31905556  0.42720732     0.95500
C1750       C  0.66106980  0.31728979  0.42610363     0.95300
N1751       N  0.69922196  0.44886064  0.40323922    -0.06900
N1752       N  0.67250498  0.46748417  0.40439365    -0.59400
N1753       N  0.77486445  0.42695828  0.41740345    -0.05000
N1754       N  0.80053307  0.43022771  0.42861537    -0.60600
N1755       N  0.77520993  0.44959963  0.40346514    -0.06900
N1756       N  0.80126294  0.46901455  0.40499799    -0.59600
N1757       N  0.69973077  0.42616039  0.41714566    -0.04600
N1758       N  0.67356275  0.42866780  0.42798534    -0.60700
Mn1759     Mn  0.73776713  0.38738683  0.41888247     1.18400
C1760       C  0.65663463  0.45438157  0.41988601     0.97600
C1761       C  0.81692866  0.45638726  0.42074436     0.98300
N1762       N  0.70259108  0.31513392  0.36068536    -0.06900
N1763       N  0.68485695  0.28839199  0.35590856    -0.63200
N1764       N  0.77509307  0.33818303  0.34637526    -0.05700
N1765       N  0.79240909  0.32706695  0.33145790    -0.63900
N1766       N  0.77552277  0.31557772  0.36045921    -0.06400
N1767       N  0.79316271  0.28884734  0.35517142    -0.63500
N1768       N  0.70233178  0.33742745  0.34645676    -0.05300
N1769       N  0.68465610  0.32589394  0.33178890    -0.64200
Mn1770     Mn  0.73908261  0.31768238  0.38414145     1.10700
C1771       C  0.67341048  0.29548088  0.33792818     0.98800
C1772       C  0.80372049  0.29631075  0.33703061     0.98900
N1773       N  0.77410415  0.44516842  0.35753698    -0.06400
N1774       N  0.79300192  0.47020480  0.35196201    -0.61800
N1775       N  0.70101092  0.41974053  0.34448567    -0.05700
N1776       N  0.68187083  0.42768140  0.32978720    -0.58500
N1777       N  0.70092140  0.44457421  0.35756106    -0.07000
N1778       N  0.68161300  0.46944754  0.35208270    -0.61400
N1779       N  0.77420373  0.42039218  0.34443233    -0.06000
N1780       N  0.79294074  0.42856548  0.32966120    -0.58500
Mn1781     Mn  0.73741693  0.44801944  0.38060081     1.20200
Mn1782     Mn  0.73814520  0.37898372  0.34516987     1.10100
Cl1783     Cl  0.73817107  0.38291464  0.38208386    -0.86500
C1784       C  0.80476672  0.45966820  0.33452975     0.95800
C1785       C  0.66981176  0.45875857  0.33473279     0.95600
N1786       N  0.77582276  0.18108233  0.59497484    -0.06700
N1787       N  0.80232678  0.19935423  0.59275618    -0.58800
N1788       N  0.70088807  0.16034481  0.58091795    -0.06300
N1789       N  0.67663479  0.16327477  0.56871580    -0.60900
N1790       N  0.70033697  0.18497682  0.59402193    -0.05900
N1791       N  0.67513642  0.20521186  0.59098443    -0.58800
N1792       N  0.77478240  0.15645321  0.58186576    -0.05600
N1793       N  0.80028130  0.15751561  0.57046271    -0.61300
C1794       C  0.81732517  0.18446731  0.57728809     0.95500
C1795       C  0.66069990  0.19133093  0.57496108     0.95300
N1796       N  0.69537745  0.05826190  0.59559759    -0.06900
N1797       N  0.66878467  0.03991052  0.59366362    -0.59400
N1798       N  0.77098175  0.07742360  0.58227840    -0.05000
N1799       N  0.79544573  0.07237212  0.57036990    -0.60600
N1800       N  0.77069378  0.05433122  0.59597759    -0.06900
N1801       N  0.79531526  0.03300518  0.59365906    -0.59600
N1802       N  0.69651913  0.08177150  0.58212538    -0.04600
N1803       N  0.67071372  0.08024847  0.57086896    -0.60700
Mn1804     Mn  0.73584620  0.11897764  0.58127223     1.18400
C1805       C  0.65370958  0.05404401  0.57819792     0.97600
C1806       C  0.81021891  0.04436293  0.57737263     0.98300
N1807       N  0.70065848  0.18889937  0.64017082    -0.06900
N1808       N  0.68372416  0.21629030  0.64485281    -0.63200
N1809       N  0.77249159  0.16280944  0.65491635    -0.05700
N1810       N  0.79126206  0.17246346  0.66954006    -0.63900
N1811       N  0.77364107  0.18547682  0.64092153    -0.06400
N1812       N  0.79326626  0.21062622  0.64579327    -0.63500
N1813       N  0.69939769  0.16643285  0.65427489    -0.05300
N1814       N  0.68166357  0.17856078  0.66879839    -0.64200
Mn1815     Mn  0.73760140  0.18601902  0.61731380     1.10700
C1816       C  0.67165637  0.20956689  0.66266623     0.98800
C1817       C  0.80420799  0.20234868  0.66370331     0.98900
N1818       N  0.76878647  0.05634068  0.64229504    -0.06400
N1819       N  0.78720396  0.03050659  0.64758039    -0.61800
N1820       N  0.69594348  0.08391502  0.65497597    -0.05700
N1821       N  0.67633479  0.07556129  0.66932779    -0.58500
N1822       N  0.69549780  0.05998460  0.64137554    -0.07000
N1823       N  0.67540863  0.03552417  0.64618074    -0.61400
N1824       N  0.76924194  0.08055476  0.65576336    -0.06000
N1825       N  0.78787747  0.07134376  0.67043916    -0.58500
Mn1826     Mn  0.73268803  0.05627970  0.61867089     1.20200
Mn1827     Mn  0.73421913  0.12339044  0.65538750     1.10100
Cl1828     Cl  0.73514015  0.12118181  0.61835399    -0.86500
C1829       C  0.79914155  0.04015421  0.66513741     0.95800
C1830       C  0.66332379  0.04533484  0.66364422     0.95600
N1831       N  0.69251978  0.50607728  0.00019969    -0.37200
N1832       N  0.73738809  0.48059349  0.02870886    -0.57700
N1833       N  0.78929218  0.49028968  0.00020198    -0.37200
N1834       N  0.74534225  0.01779372  0.97269213    -0.57700
C1835       C  0.67376331  0.50496031  0.01628127     0.26400
C1836       C  0.67807638  0.02732103  0.98675618     0.26400
C1837       C  0.80636147  0.48408864  0.01661402     0.26400
C1838       C  0.81048676  0.00184762  0.98783249     0.26400
C1839       C  0.70964879  0.47056569  0.03721765     0.35000
C1840       C  0.76154437  0.46407349  0.03784947     0.35000
C1841       C  0.72043995  0.02609536  0.96094637     0.35000
C1842       C  0.77196938  0.01660891  0.96138309     0.35000
C1843       C  0.64631721  0.52461465  0.01354764    -0.22400
C1844       C  0.64878950  0.03880267  0.99420771    -0.22400
C1845       C  0.83834140  0.49316173  0.01379171    -0.22400
C1846       C  0.84073258  0.00381508  0.99644906    -0.22400
C1847       C  0.71619420  0.44770007  0.05195438    -0.23500
C1848       C  0.74922639  0.44383911  0.05248548    -0.23500
C1849       C  0.73128656  0.03042295  0.94204385    -0.23500
C1850       C  0.76404455  0.02457634  0.94234442    -0.23500
C1851       C  0.67885324  0.48347226  0.03237198    -0.18800
C1852       C  0.68864664  0.03258150  0.96741930    -0.18800
C1853       C  0.80365588  0.01196231  0.96849116    -0.18800
C1854       C  0.79460017  0.46819888  0.03361321    -0.18800
H1855       H  0.62640593  0.52822139  0.02356449     0.14100
H1856       H  0.63087756  0.05442377  0.98706250     0.14100
H1857       H  0.85816121  0.49080110  0.02398102     0.14100
H1858       H  0.86287470  0.01300976  0.99005716     0.14100
H1859       H  0.69905710  0.43548673  0.06147351     0.12300
H1860       H  0.76263762  0.42785958  0.06240397     0.12300
H1861       H  0.71724563  0.03799264  0.92949813     0.12300
H1862       H  0.78026904  0.02659852  0.93006892     0.12300
H1863       H  0.71196386  0.49003336  0.99718645     0.25600
H1864       H  0.76575446  0.48243661  0.99747358     0.25600
N1865       N  0.69522985  0.23600402  0.00164818    -0.37200
N1866       N  0.74300076  0.22267486  0.97168887    -0.57700
N1867       N  0.79204516  0.23192641  0.00125073    -0.37200
N1868       N  0.74439719  0.24274800  0.03174801    -0.57700
C1869       C  0.67662763  0.22414320  0.98684913     0.26400
C1870       C  0.67727752  0.23507840  0.01808711     0.26400
C1871       C  0.80988618  0.21948340  0.98627733     0.26400
C1872       C  0.81037790  0.23012332  0.01751509     0.26400
C1873       C  0.71690997  0.22785882  0.96028144     0.35000
C1874       C  0.76909689  0.22569116  0.96007901     0.35000
C1875       C  0.71872009  0.25598587  0.04135601     0.35000
C1876       C  0.77100209  0.25418722  0.04115139     0.35000
C1877       C  0.64670372  0.21480564  0.99407498    -0.22400
C1878       C  0.64699581  0.22209407  0.01375306    -0.22400
C1879       C  0.83974740  0.20896179  0.99317202    -0.22400
C1880       C  0.84007842  0.21576479  0.01290167    -0.22400
C1881       C  0.72645640  0.23373409  0.94126197    -0.23500
C1882       C  0.75960660  0.23223490  0.94112606    -0.23500
C1883       C  0.72897085  0.27504687  0.05730364    -0.23500
C1884       C  0.76218448  0.27407346  0.05711206    -0.23500
C1885       C  0.68465353  0.22578378  0.96679586    -0.18800
C1886       C  0.68620708  0.24993218  0.03616842    -0.18800
C1887       C  0.80302458  0.24661308  0.03542026    -0.18800
C1888       C  0.80126494  0.22139385  0.96635613    -0.18800
H1889       H  0.62628047  0.20518671  0.98586865     0.14100
H1890       H  0.62687152  0.21917339  0.02362039     0.14100
H1891       H  0.85972239  0.19886749  0.98472551     0.14100
H1892       H  0.86041766  0.21219516  0.02258983     0.14100
H1893       H  0.71119034  0.23869433  0.92880211     0.12300
H1894       H  0.77495264  0.23578234  0.92856850     0.12300
H1895       H  0.71410217  0.28848157  0.06784579     0.12300
H1896       H  0.77796443  0.28678592  0.06743529     0.12300
H1897       H  0.71685287  0.24909807  0.00010837     0.25600
H1898       H  0.77099216  0.24621909  0.99990031     0.25600
N1899       N  0.95569661  0.19279256  0.90369709    -0.06700
N1900       N  0.92900715  0.21133030  0.90505622    -0.58800
N1901       N  0.03129142  0.16989278  0.91678352    -0.06300
N1902       N  0.55584242  0.17880192  0.92880691    -0.60900
N1903       N  0.03131716  0.19263241  0.90288496    -0.05900
N1904       N  0.55590867  0.21787459  0.90527388    -0.58800
N1905       N  0.95663064  0.17011458  0.91762289    -0.05600
N1906       N  0.93077385  0.17243410  0.92866647    -0.61300
C1907       C  0.91391896  0.19826814  0.92078694     0.95500
C1908       C  0.57159074  0.20533192  0.92099850     0.95300
N1909       N  0.03092712  0.06641580  0.90619910    -0.06900
N1910       N  0.56041172  0.05439671  0.90951982    -0.59400
N1911       N  0.95670404  0.09176942  0.92018394    -0.05000
N1912       N  0.93270970  0.09025100  0.93268867    -0.60600
N1913       N  0.95533772  0.06627515  0.90764407    -0.06900
N1914       N  0.93015798  0.04672907  0.91155598    -0.59600
N1915       N  0.03105621  0.09167516  0.91891301    -0.04600
N1916       N  0.55784138  0.09739233  0.93112452    -0.60700
Mn1917     Mn  0.99392587  0.13097971  0.91893957     1.18400
C1918       C  0.57508943  0.07025346  0.92478246     0.97600
C1919       C  0.91615198  0.06214674  0.92728482     0.98300
N1920       N  0.52887432  0.19513754  0.85824451    -0.06900
N1921       N  0.54784093  0.22048050  0.85320425    -0.63200
N1922       N  0.95426501  0.16441729  0.84477550    -0.05700
N1923       N  0.93553863  0.17337841  0.83006493    -0.63900
N1924       N  0.95522752  0.18917220  0.85789952    -0.06400
N1925       N  0.93706407  0.21492977  0.85238904    -0.63500
N1926       N  0.52981744  0.17053744  0.84506044    -0.05300
N1927       N  0.54936006  0.17901507  0.83072978    -0.64200
Mn1928     Mn  0.99265668  0.19179776  0.88054213     1.10700
C1929       C  0.56068105  0.21012044  0.83605945     0.98800
C1930       C  0.92456234  0.20485602  0.83508919     0.98900
N1931       N  0.95495557  0.05945322  0.86108789    -0.06400
N1932       N  0.93797339  0.03213483  0.85629751    -0.61800
N1933       N  0.53291607  0.08871528  0.84702670    -0.05700
N1934       N  0.55200414  0.07854033  0.83270504    -0.58500
N1935       N  0.53321161  0.06613821  0.86108462    -0.07000
N1936       N  0.55240896  0.04038814  0.85646614    -0.61400
N1937       N  0.95450093  0.08155455  0.84673985    -0.06000
N1938       N  0.93716210  0.06936469  0.83205597    -0.58500
Mn1939     Mn  0.99213561  0.06208705  0.88410365     1.20200
Mn1940     Mn  0.99080645  0.12310796  0.84502386     1.10100
Cl1941     Cl  0.99219737  0.12692040  0.88194773    -0.86500
C1942       C  0.92672499  0.03862347  0.83819442     0.95800
C1943       C  0.56394260  0.04821013  0.83864690     0.95600
N1944       N  0.64176323  0.37854407  0.72488579    -0.37200
N1945       N  0.62791859  0.42988698  0.75467693    -0.57700
N1946       N  0.61453881  0.37734441  0.78271498    -0.37200
N1947       N  0.62561311  0.32596096  0.75221232    -0.57700
C1948       C  0.64047635  0.40693551  0.71393761     0.26400
C1949       C  0.63934433  0.35141364  0.71262444     0.26400
C1950       C  0.60185792  0.40501689  0.79191577     0.26400
C1951       C  0.60122396  0.34943040  0.79077911     0.26400
C1952       C  0.64114865  0.44978384  0.74092026     0.35000
C1953       C  0.62663266  0.44901022  0.77114373     0.35000
C1954       C  0.63774517  0.30630721  0.73765512     0.35000
C1955       C  0.62351676  0.30574631  0.76794056     0.35000
C1956       C  0.63768989  0.39778996  0.69442911    -0.22400
C1957       C  0.63695321  0.36268747  0.69360185    -0.22400
C1958       C  0.58047640  0.39450145  0.80615452    -0.22400
C1959       C  0.58026164  0.35937727  0.80553032    -0.22400
C1960       C  0.64850058  0.48159897  0.74867516    -0.23500
C1961       C  0.63942105  0.48106538  0.76787276    -0.23500
C1962       C  0.64349422  0.27354465  0.74418989    -0.23500
C1963       C  0.63437250  0.27316463  0.76338394    -0.23500
C1964       C  0.64386103  0.44068926  0.72105927    -0.18800
C1965       C  0.64109392  0.31682291  0.71816061    -0.18800
C1966       C  0.60860277  0.31525892  0.78565220    -0.18800
C1967       C  0.61034591  0.43932244  0.78826591    -0.18800
H1968       H  0.63662775  0.41464046  0.68206462     0.14100
H1969       H  0.63511955  0.34722849  0.68048667     0.14100
H1970       H  0.56661566  0.41043389  0.81605309     0.14100
H1971       H  0.56619188  0.34303050  0.81483402     0.14100
H1972       H  0.65455089  0.00264104  0.73979826     0.12300
H1973       H  0.63926501  0.00128983  0.77709892     0.12300
H1974       H  0.65264355  0.25197927  0.73589154     0.12300
H1975       H  0.63500049  0.25123494  0.77280700     0.12300
H1976       H  0.64765406  0.37772991  0.73957583     0.25600
H1977       H  0.63354381  0.37729398  0.77281437     0.25600
N1978       N  0.86839618  0.42395734  0.74964709    -0.37200
N1979       N  0.85459942  0.37270325  0.71959991    -0.57700
N1980       N  0.87341493  0.32052925  0.74671124    -0.37200
N1981       N  0.88949358  0.37166967  0.77606128    -0.57700
C1982       C  0.86537626  0.44319133  0.73351530     0.26400
C1983       C  0.88515524  0.44253370  0.76296527     0.26400
C1984       C  0.87215771  0.30240991  0.72985656     0.26400
C1985       C  0.88993990  0.30160337  0.75969633     0.26400
C1986       C  0.83996099  0.40011453  0.71172258     0.35000
C1987       C  0.84324079  0.34499050  0.70993742     0.35000
C1988       C  0.88944173  0.39869509  0.78846993     0.35000
C1989       C  0.89042023  0.34342601  0.78712859     0.35000
C1990       C  0.88047231  0.47428542  0.73654160    -0.22400
C1991       C  0.89318170  0.47377813  0.75508601    -0.22400
C1992       C  0.88839887  0.27173435  0.73207860    -0.22400
C1993       C  0.89966424  0.27122833  0.75093867    -0.22400
C1994       C  0.81938774  0.38983900  0.69684131    -0.23500
C1995       C  0.82145491  0.35482643  0.69571811    -0.23500
C1996       C  0.89043039  0.38760709  0.80755476    -0.23500
C1997       C  0.89089515  0.35253564  0.80671094    -0.23500
C1998       C  0.84725360  0.43429403  0.71675200    -0.18800
C1999       C  0.89078966  0.43309619  0.78255114    -0.18800
C2000       C  0.89394438  0.30983967  0.77964724    -0.18800
C2001       C  0.85359581  0.31119010  0.71336202    -0.18800
H2002       H  0.88167532  0.99570204  0.72573889     0.14100
H2003       H  0.90401381  0.99537601  0.76185468     0.14100
H2004       H  0.89108174  0.25146101  0.72136789     0.14100
H2005       H  0.91284618  0.25051516  0.75758216     0.14100
H2006       H  0.80476978  0.40591928  0.68761373     0.12300
H2007       H  0.80862001  0.33854117  0.68552404     0.12300
H2008       H  0.89107203  0.40313279  0.82068297     0.12300
H2009       H  0.89216670  0.33570585  0.81907483     0.12300
H2010       H  0.85605176  0.40123235  0.75224182     0.25600
H2011       H  0.85980245  0.34233209  0.75003602     0.25600
N2012       N  0.59556197  0.12922264  0.22194341    -0.37200
N2013       N  0.60741906  0.07567821  0.24970628    -0.57700
N2014       N  0.62605830  0.12630966  0.27913203    -0.37200
N2015       N  0.61701832  0.17963820  0.25067471    -0.57700
C2016       C  0.59449437  0.10153786  0.20996040     0.26400
C2017       C  0.59835759  0.15709529  0.21063204     0.26400
C2018       C  0.63599223  0.09720818  0.28770735     0.26400
C2019       C  0.64137188  0.15254240  0.28817111     0.26400
C2020       C  0.59231793  0.05738485  0.23560165     0.35000
C2021       C  0.60793294  0.05597026  0.26571518     0.35000
C2022       C  0.60499719  0.20073731  0.23701995     0.35000
C2023       C  0.62186378  0.19899578  0.26683073     0.35000
C2024       C  0.59643430  0.11205548  0.19077313    -0.22400
C2025       C  0.59840390  0.14709075  0.19118897    -0.22400
C2026       C  0.65757881  0.10507897  0.30255778    -0.22400
C2027       C  0.66092887  0.14002263  0.30286362    -0.22400
C2028       C  0.58287598  0.02606417  0.24277499    -0.23500
C2029       C  0.59295286  0.02509163  0.26182264    -0.23500
C2030       C  0.60259844  0.23366468  0.24448838    -0.23500
C2031       C  0.61299794  0.23248291  0.26340318    -0.23500
C2032       C  0.58982794  0.06733247  0.21589112    -0.18800
C2033       C  0.59868416  0.19133233  0.21744940    -0.18800
C2034       C  0.63690229  0.18752890  0.28404804    -0.18800
C2035       C  0.62477368  0.06398481  0.28307403    -0.18800
H2036       H  0.59598209  0.09622950  0.17776088     0.14100
H2037       H  0.59959014  0.16326318  0.17855411     0.14100
H2038       H  0.66952582  0.08750872  0.31226472     0.14100
H2039       H  0.67598651  0.15455413  0.31280167     0.14100
H2040       H  0.57176277  0.50511994  0.23513108     0.12300
H2041       H  0.59064236  0.50419279  0.27191546     0.12300
H2042       H  0.59475600  0.25640822  0.23705253     0.12300
H2043       H  0.61451833  0.25402021  0.27335290     0.12300
H2044       H  0.59091128  0.12953720  0.23678811     0.25600
H2045       H  0.60741331  0.12835047  0.26909291     0.25600
N2046       N  0.86830281  0.07531789  0.24949304    -0.37200
N2047       N  0.85261277  0.12682294  0.27907126    -0.57700
N2048       N  0.87068295  0.17920838  0.25193539    -0.37200
N2049       N  0.88837495  0.12774022  0.22297129    -0.57700
C2050       C  0.86568881  0.05601336  0.26563203     0.26400
C2051       C  0.88376794  0.05629426  0.23577877     0.26400
C2052       C  0.86836440  0.19728742  0.26879227     0.26400
C2053       C  0.88867883  0.19776154  0.23952613     0.26400
C2054       C  0.83913477  0.09905213  0.28714246     0.35000
C2055       C  0.83971396  0.15429020  0.28828567     0.35000
C2056       C  0.88878838  0.10076824  0.21050899     0.35000
C2057       C  0.89026706  0.15606873  0.21200812     0.35000
C2058       C  0.87970063  0.02437748  0.26213313    -0.22400
C2059       C  0.89064020  0.02436069  0.24326026    -0.28400
C2060       C  0.88516262  0.22759118  0.26714688    -0.22400
C2061       C  0.89820448  0.22779101  0.24872136    -0.22400
C2062       C  0.81748107  0.10891728  0.30154936    -0.23500
C2063       C  0.81792753  0.14398973  0.30231031    -0.23500
C2064       C  0.89123395  0.11197844  0.19150644    -0.23500
C2065       C  0.89157553  0.14700569  0.19242454    -0.23500
C2066       C  0.84842790  0.06507817  0.28276161    -0.18800
C2067       C  0.88976427  0.06628784  0.21632592    -0.18800
C2068       C  0.89432579  0.18954225  0.21965872    -0.18800
C2069       C  0.84930585  0.18827204  0.28499013    -0.18800
H2070       H  0.88001771  0.50459883  0.27294063     0.14100
H2071       H  0.90218295  0.50376182  0.23720217     0.14100
H2072       H  0.88747195  0.24762288  0.27803110     0.14100
H2073       H  0.91255088  0.24808597  0.24266614     0.14100
H2074       H  0.80329763  0.09254539  0.31077242     0.12300
H2075       H  0.80417237  0.16002376  0.31221074     0.12300
H2076       H  0.89303589  0.09661333  0.17836239     0.12300
H2077       H  0.89364669  0.16378972  0.18009275     0.12300
H2078       H  0.85671325  0.09851057  0.24720970     0.25600
H2079       H  0.85723772  0.15765405  0.24827267     0.25600
N2080       N  0.95599118  0.30600825  0.09532063    -0.06700
N2081       N  0.93057149  0.28571051  0.09337120    -0.58800
N2082       N  0.03029034  0.33108918  0.08063884    -0.06300
N2083       N  0.55507336  0.32596567  0.06928405    -0.60900
N2084       N  0.03179864  0.30844045  0.09455565    -0.05900
N2085       N  0.55952605  0.28789082  0.09308926    -0.58800
N2086       N  0.95585194  0.32889811  0.08155143    -0.05600
N2087       N  0.93066791  0.32501116  0.07011888    -0.61300
C2088       C  0.91484823  0.29812602  0.07752165     0.95500
C2089       C  0.57353935  0.30106152  0.07695236     0.95300
N2090       N  0.02707281  0.43548374  0.09087894    -0.06900
N2091       N  0.54807543  0.45421442  0.08735811    -0.59400
N2092       N  0.95270785  0.40670824  0.08027691    -0.05000
N2093       N  0.92603164  0.40527184  0.06994531    -0.60600
N2094       N  0.95144670  0.43199291  0.09297053    -0.06900
N2095       N  0.92358135  0.44842918  0.09134384    -0.59600
N2096       N  0.02670391  0.40980054  0.07845548    -0.04600
N2097       N  0.54835152  0.41035364  0.06629517    -0.60700
Mn2098     Mn  0.99150535  0.36912644  0.07970253     1.18400
C2099       C  0.56240432  0.44007654  0.07139418     0.97600
C2100       C  0.90787217  0.43128128  0.07687917     0.98300
N2101       N  0.53262575  0.31036791  0.14092787    -0.06900
N2102       N  0.55300807  0.28643195  0.14635992    -0.63200
N2103       N  0.95883974  0.33447868  0.15468696    -0.05700
N2104       N  0.94078044  0.32540001  0.16964379    -0.63900
N2105       N  0.95901747  0.30997410  0.14138514    -0.06400
N2106       N  0.94110731  0.28423309  0.14702808    -0.63500
N2107       N  0.53161554  0.33510351  0.15405511    -0.05300
N2108       N  0.55113251  0.32794678  0.16869245    -0.64200
Mn2109     Mn  0.99466263  0.30809097  0.11776438     1.10700
C2110       C  0.56453928  0.29752834  0.16370448     0.98800
C2111       C  0.92947042  0.29409109  0.16458333     0.98900
N2112       N  0.95598983  0.43964393  0.13921859    -0.06400
N2113       N  0.93888001  0.46647642  0.14490119    -0.61800
N2114       N  0.52696493  0.41723155  0.15212569    -0.05700
N2115       N  0.54497517  0.43001920  0.16633927    -0.58500
N2116       N  0.52541436  0.43892958  0.13763112    -0.07000
N2117       N  0.54252610  0.46643316  0.14170305    -0.61400
N2118       N  0.95734182  0.41710800  0.15330217    -0.06000
N2119       N  0.94130775  0.42845807  0.16869554    -0.58500
Mn2120     Mn  0.99072617  0.43793960  0.11472644     1.20200
Mn2121     Mn  0.99454630  0.37670540  0.15352242     1.10100
Cl2122     Cl  0.99284466  0.37301300  0.11655986    -0.86500
C2123       C  0.92953882  0.45909916  0.16325877     0.95800
C2124       C  0.55462984  0.46074701  0.15967907     0.95600
C2125       C  0.89910495  0.03937919  0.20179082    -0.06700
C2126       C  0.92989672  0.02462135  0.20325365    -0.17800
C2127       C  0.94027748  0.49722524  0.19267869     0.10500
C2128       C  0.91977216  0.48601278  0.17740042    -0.06600
C2129       C  0.88789779  0.00142581  0.17423887    -0.17800
C2130       C  0.87769850  0.02720378  0.18722141     0.10600
S2131       S  0.97861649  0.47757519  0.19783111    -0.32800
S2132       S  0.83706241  0.04313649  0.18450505    -0.32800
H2133       H  0.83235655  0.05265091  0.20409272     0.28600
H2134       H  0.96477123  0.44589370  0.20218281     0.28600
H2135       H  0.94639332  0.03363921  0.21443698     0.19200
H2136       H  0.87168339  0.99280179  0.16281255     0.19200
C2137       C  0.92015081  0.26855721  0.17919201    -0.06700
C2138       C  0.93953981  0.23930957  0.18095164    -0.17800
C2139       C  0.93331650  0.21479446  0.19504364     0.10500
C2140       C  0.90490401  0.21734791  0.20636509    -0.06600
C2141       C  0.88550693  0.24672782  0.20465437    -0.17800
C2142       C  0.89332000  0.27271031  0.19161996     0.10600
S2143       S  0.96325353  0.18175020  0.19825717    -0.32800
S2144       S  0.86784640  0.31006033  0.19136684    -0.32800
H2145       H  0.87220996  0.31768129  0.17159531     0.28600
H2146       H  0.95652672  0.17594092  0.21801207     0.28600
H2147       H  0.96063087  0.23617441  0.17178470     0.19200
H2148       H  0.86396791  0.24934782  0.21349146     0.19200
C2149       C  0.56431283  0.48875482  0.17313136    -0.06700
C2150       C  0.59206409  0.48433392  0.18457626    -0.17800
C2151       C  0.60139125  0.01126131  0.19780431     0.10500
C2152       C  0.58199968  0.04067107  0.20078396    -0.06600
C2153       C  0.55387349  0.04441203  0.18958733    -0.17800
C2154       C  0.54446529  0.01960029  0.17589514     0.10600
S2155       S  0.64068862  0.50314757  0.20971518    -0.32800
S2156       S  0.50875722  0.02895936  0.16176802    -0.32800
H2157       H  0.49852828  0.49680673  0.15958675     0.28600
H2158       H  0.64755519  0.04054390  0.21069805     0.28600
H2159       H  0.60632555  0.46128411  0.18285772     0.19200
H2160       H  0.53897629  0.06693819  0.19160408     0.19200
C2161       C  0.59112594  0.21906958  0.20358997    -0.06700
C2162       C  0.56057706  0.23435843  0.20483462    -0.17800
C2163       C  0.55189486  0.26107768  0.19264092     0.10500
C2164       C  0.57394801  0.27242710  0.17843052    -0.06600
C2165       C  0.60450264  0.25714474  0.17711905    -0.17800
C2166       C  0.61369246  0.23128274  0.18992374     0.10600
S2167       S  0.51221968  0.27921659  0.19587563    -0.32800
S2168       S  0.65433648  0.21497655  0.18804153    -0.32800
H2169       H  0.65747602  0.20530679  0.20759998     0.28600
H2170       H  0.50498702  0.28009353  0.17589274     0.28600
H2171       H  0.54339252  0.22541637  0.21550947     0.19200
H2172       H  0.62141737  0.26568178  0.16618888     0.19200
C2173       C  0.57601470  0.02125219  0.82512129    -0.06700
C2174       C  0.59625909  0.99574043  0.83268527    -0.17800
C2175       C  0.60819988  0.46936584  0.82152157     0.10500
C2176       C  0.59895583  0.46703310  0.80172034    -0.06600
C2177       C  0.57846297  0.49212575  0.79408301    -0.17800
C2178       C  0.56657592  0.01893629  0.80528552     0.10600
S2179       S  0.63585605  0.43982153  0.83269392    -0.32800
S2180       S  0.02844426  0.03679279  0.79434458    -0.32800
H2181       H  0.00814164  0.03808442  0.81064131     0.28600
H2182       H  0.65346709  0.43214621  0.81570912     0.28600
H2183       H  0.60370035  0.99715064  0.84781879     0.19200
H2184       H  0.57113335  0.49046343  0.77893273     0.19200
C2185       C  0.57417574  0.23485445  0.82226052    -0.06700
C2186       C  0.60082736  0.25441499  0.82819754    -0.17800
C2187       C  0.61311459  0.28019555  0.81638154     0.10500
C2188       C  0.59762137  0.28756213  0.79859083    -0.06600
C2189       C  0.57078493  0.26831585  0.79275416    -0.17800
C2190       C  0.55907300  0.24198430  0.80427437     0.10600
S2191       S  0.64839592  0.30284525  0.82477484    -0.32800
S2192       S  0.52320008  0.22041712  0.79604927    -0.32800
H2193       H  0.04277162  0.17867177  0.79099893     0.28600
H2194       H  0.66099470  0.30953139  0.80620418     0.28600
H2195       H  0.61224848  0.24942394  0.84209783     0.19200
H2196       H  0.55872494  0.27409803  0.77915395     0.19200
C2197       C  0.89977975  0.46022602  0.79713043    -0.06700
C2198       C  0.93028883  0.45900239  0.80602938    -0.17800
C2199       C  0.94040581  0.48450847  0.81914299     0.10500
C2200       C  0.91735980  0.01121528  0.82423997    -0.06600
C2201       C  0.88768132  0.01411054  0.81451877    -0.17800
C2202       C  0.87884696  0.48771331  0.80169883     0.10600
S2203       S  0.98052088  0.48014655  0.82918484    -0.32800
S2204       S  0.83861960  0.48939810  0.79154658    -0.32800
H2205       H  0.83054442  0.52201155  0.79877732     0.28600
H2206       H  0.98380381  0.00995144  0.83525375     0.28600
H2207       H  0.94658688  0.43818229  0.80247522     0.19200
H2208       H  0.87228979  0.03578761  0.81778969     0.19200
C2209       C  0.90285750  0.28195308  0.79317345    -0.06700
C2210       C  0.88057771  0.25563936  0.79640174    -0.17800
C2211       C  0.88703638  0.22972774  0.80976930     0.10500
C2212       C  0.91629534  0.23032114  0.82028930    -0.06600
C2213       C  0.93888006  0.25611453  0.81666757    -0.17800
C2214       C  0.93280104  0.28143066  0.80299760     0.10600
S2215       S  0.85677938  0.19724275  0.81289288    -0.32800
S2216       S  0.96434231  0.31202893  0.79860751    -0.32800
H2217       H  0.95658419  0.31756014  0.77894544     0.28600
H2218       H  0.86561507  0.18736497  0.83177085     0.28600
H2219       H  0.85776540  0.25563939  0.78865324     0.19200
H2220       H  0.96177896  0.25618807  0.82433732     0.19200
C2221       C  0.65997932  0.26343942  0.04891930    -0.06700
C2222       C  0.64934563  0.29675674  0.04561813    -0.17800
C2223       C  0.62269338  0.31036972  0.05546143     0.10500
C2224       C  0.60491840  0.28972836  0.06845820    -0.06600
C2225       C  0.61654867  0.25677348  0.07242371    -0.17800
C2226       C  0.64404009  0.24358539  0.06297489     0.10600
S2227       S  0.61349064  0.35451960  0.05092294    -0.32800
S2228       S  0.65653366  0.20080699  0.06876539    -0.32800
H2229       H  0.68901593  0.20430046  0.06334873     0.28600
H2230       H  0.60736387  0.36256638  0.07061187     0.28600
H2231       H  0.66194872  0.31230961  0.03513437     0.19200
H2232       H  0.60367214  0.24077701  0.08254132     0.19200
C2233       C  0.83048620  0.26059389  0.04704176    -0.06700
C2234       C  0.83719586  0.24836380  0.06580254    -0.17800
C2235       C  0.86372437  0.26067302  0.07661100     0.10500
C2236       C  0.88510038  0.28435749  0.06807544    -0.06600
C2237       C  0.87777885  0.29658505  0.04937998    -0.17800
C2238       C  0.85058382  0.28584505  0.03914447     0.10600
S2239       S  0.86789127  0.24646557  0.10132033    -0.32800
S2240       S  0.84272047  0.30578400  0.01604021    -0.32800
H2241       H  0.80890512  0.30560021  0.01779882     0.28600
H2242       H  0.87362917  0.27939061  0.10890324     0.28600
H2243       H  0.82138169  0.22957160  0.07215432     0.19200
H2244       H  0.89316199  0.31525786  0.04256178     0.19200
C2245       C  0.65801590  0.22499365  0.95211355    -0.06700
C2246       C  0.65702269  0.19817892  0.93837658    -0.17800
C2247       C  0.63040765  0.19386836  0.92603003     0.10500
C2248       C  0.60359192  0.21589114  0.92795028    -0.06600
C2249       C  0.60542605  0.24401965  0.94061082    -0.17800
C2250       C  0.63262327  0.24927269  0.95237179     0.10600
S2251       S  0.63137294  0.15905494  0.90862956    -0.32800
S2252       S  0.63275986  0.28654551  0.96801872    -0.32800
H2253       H  0.66650963  0.29006567  0.96865888     0.28600
H2254       H  0.60878483  0.17307806  0.89564540     0.28600
H2255       H  0.67668215  0.17992494  0.93765638     0.19200
H2256       H  0.58488340  0.26103030  0.94207921     0.19200
C2257       C  0.88159241  0.20777910  0.92768484    -0.06700
C2258       C  0.87797567  0.23864887  0.93786193    -0.17800
C2259       C  0.85092985  0.24466637  0.94960975     0.10500
C2260       C  0.82731945  0.21894293  0.95151690    -0.06600
C2261       C  0.82982040  0.18913636  0.94012588    -0.17800
C2262       C  0.85647978  0.18355532  0.92800301     0.10600
S2263       S  0.84892921  0.28477956  0.96265375    -0.32800
S2264       S  0.85772172  0.14462958  0.91372309    -0.32800
H2265       H  0.87869659  0.15677305  0.89930325     0.28600
H2266       H  0.81515848  0.28585538  0.96447490     0.28600
H2267       H  0.89719578  0.25732088  0.93758370     0.19200
H2268       H  0.81144314  0.16964615  0.94118985     0.19200
C2269       C  0.59107378  0.45357076  0.06119950    -0.06700
C2270       C  0.61421915  0.47255469  0.07162267    -0.17800
C2271       C  0.64310538  0.48286100  0.06277168     0.10500
C2272       C  0.64970540  0.47263407  0.04335457    -0.06600
C2273       C  0.62645740  0.45390588  0.03300142    -0.17800
C2274       C  0.59695691  0.44551611  0.04135705     0.10600
S2275       S  0.66828570  0.01211364  0.07644955    -0.32800
S2276       S  0.56722844  0.42656868  0.02537520    -0.32800
H2277       H  0.54105258  0.44469535  0.03351474     0.28600
H2278       H  0.68447530  0.02695166  0.06073205     0.28600
H2279       H  0.60839941  0.98170593  0.08633574     0.19200
H2280       H  0.63083161  0.44705842  0.01788044     0.19200
C2281       C  0.87536616  0.43900485  0.06870871    -0.06700
C2282       C  0.86430696  0.41756033  0.05350588    -0.17800
C2283       C  0.83651931  0.42508420  0.04294076     0.10500
C2284       C  0.81897200  0.45487616  0.04742610    -0.06600
C2285       C  0.82835563  0.47522075  0.06339016    -0.17800
C2286       C  0.85603397  0.46734258  0.07428983     0.10600
S2287       S  0.82619167  0.39718313  0.02281902    -0.32800
S2288       S  0.86329171  0.99087327  0.09566845    -0.32800
H2289       H  0.86942160  0.96310492  0.10795958     0.28600
H2290       H  0.79281576  0.40357098  0.02328590     0.28600
H2291       H  0.87797158  0.39512538  0.04920571     0.19200
H2292       H  0.81229695  0.99470315  0.06812575     0.19200
C2293       C  0.66398481  0.04383744  0.95319664    -0.06700
C2294       C  0.64601945  0.01843166  0.94366893    -0.17800
C2295       C  0.61717756  0.02618054  0.93408721     0.10500
C2296       C  0.60639450  0.06035865  0.93345740    -0.06600
C2297       C  0.62529690  0.08598413  0.94229309    -0.17800
C2298       C  0.65400931  0.07816122  0.95201782     0.10600
S2299       S  0.59364051  0.99085742  0.92505501    -0.32800
S2300       S  0.67526577  0.11255558  0.96404693    -0.32800
H2301       H  0.70579369  0.09687288  0.96382269     0.28600
H2302       H  0.56470288  0.00250049  0.93359513     0.28600
H2303       H  0.65328035  0.99198396  0.94499853     0.19200
H2304       H  0.61727168  0.11228670  0.94205541     0.19200
C2305       C  0.88667398  0.04978182  0.93751013    -0.06700
C2306       C  0.87608389  0.01615911  0.93405339    -0.17800
C2307       C  0.84899930  0.00291318  0.94366178     0.10500
C2308       C  0.83099539  0.02419408  0.95638231    -0.06600
C2309       C  0.84092719  0.05784742  0.95945806    -0.17800
C2310       C  0.86891335  0.07045206  0.95088712     0.10600
S2311       S  0.83991761  0.95838341  0.93983137    -0.32800
S2312       S  0.88093064  0.11248080  0.95874972    -0.32800
H2313       H  0.90941363  0.10045235  0.96754958     0.28600
H2314       H  0.80742095  0.95967999  0.94552446     0.28600
H2315       H  0.88956034  0.99964670  0.92424148     0.19200
H2316       H  0.82761691  0.07393491  0.96960513     0.19200
C2317       C  0.65582886  0.01908242  0.67808533    -0.06700
C2318       C  0.68106074  0.99731165  0.68367256    -0.17800
C2319       C  0.68067433  0.47472817  0.69940847     0.10500
C2320       C  0.64967243  0.46828423  0.70695436    -0.06600
C2321       C  0.62340936  0.48844227  0.70106345    -0.17800
C2322       C  0.62741506  0.51473376  0.68764987     0.10600
S2323       S  0.71606575  0.45037032  0.70593933    -0.32800
S2324       S  0.59202327  0.53841571  0.68048399    -0.32800
H2325       H  0.60159007  0.04933897  0.66084545     0.28600
H2326       H  0.70548421  0.43980145  0.72432115     0.28600
H2327       H  0.70488249  0.00047810  0.67743079     0.19200
H2328       H  0.59960972  0.48346082  0.70689538     0.19200
C2329       C  0.64735718  0.29031546  0.70290253    -0.06700
C2330       C  0.67823235  0.28880612  0.69460646    -0.17800
C2331       C  0.68678688  0.26255992  0.68155954     0.10500
C2332       C  0.66381337  0.23736403  0.67653890    -0.06600
C2333       C  0.63295401  0.23880298  0.68480167    -0.17800
C2334       C  0.62433470  0.26516867  0.69774757     0.10600
S2335       S  0.72757087  0.26047236  0.67223268    -0.32800
S2336       S  0.58379016  0.26502714  0.70730842    -0.32800
H2337       H  0.58159681  0.30028759  0.71092136     0.28600
H2338       H  0.73953045  0.28928018  0.68224347     0.28600
H2339       H  0.69587830  0.30782547  0.69882111     0.19200
H2340       H  0.61534751  0.21947332  0.68096746     0.19200
C2341       C  0.83606070  0.46213656  0.70375775    -0.06700
C2342       C  0.81128797  0.48390459  0.71020471    -0.17800
C2343       C  0.79982229  0.51035564  0.69850231     0.10500
C2344       C  0.81306263  0.01515119  0.67887218    -0.06600
C2345       C  0.83712707  0.99279452  0.67196135    -0.17800
C2346       C  0.84995134  0.46729758  0.68529727     0.10600
S2347       S  0.76695534  0.53571727  0.70787618    -0.32800
S2348       S  0.88134902  0.93930109  0.67462099    -0.32800
H2349       H  0.88981649  0.45925031  0.66004877     0.28600
H2350       H  0.78771721  0.06624473  0.70826590     0.28600
H2351       H  0.80066161  0.48006621  0.72443102     0.19200
H2352       H  0.84623117  0.99589171  0.65730947     0.19200
C2353       C  0.81825509  0.22843850  0.67711480    -0.06700
C2354       C  0.83999287  0.25219965  0.66937046    -0.17800
C2355       C  0.85257103  0.27894658  0.68077751     0.10500
C2356       C  0.84242833  0.28291707  0.70030961    -0.06600
C2357       C  0.82085668  0.25921620  0.70808527    -0.17800
C2358       C  0.80863212  0.23211834  0.69683793     0.10600
S2359       S  0.88152204  0.30682774  0.66958576    -0.32800
S2360       S  0.77948779  0.20404279  0.70782851    -0.32800
H2361       H  0.77398564  0.22353336  0.72483900     0.28600
H2362       H  0.89768438  0.31633160  0.68681103     0.28600
H2363       H  0.84743604  0.24975947  0.65428433     0.19200
H2364       H  0.81335432  0.26230682  0.72311104     0.19200
C2365       C  0.65698987  0.48350307  0.32058264    -0.06700
C2366       C  0.63356016  0.50693654  0.32709930    -0.17800
C2367       C  0.62094617  0.03191230  0.31504767     0.10500
C2368       C  0.63368233  0.03535925  0.29609710    -0.06600
C2369       C  0.65675747  0.01181158  0.28937065    -0.17800
C2370       C  0.66948427  0.48657922  0.30150318     0.10600
S2371       S  0.59085053  0.06043328  0.32507446    -0.32800
S2372       S  0.70215918  0.46079065  0.29218530    -0.32800
H2373       H  0.72143382  0.46498706  0.30894667     0.28600
H2374       H  0.57751344  0.07073569  0.30725129     0.28600
H2375       H  0.62418224  0.50510957  0.34178525     0.19200
H2376       H  0.66686763  0.01463845  0.27492026     0.19200
C2377       C  0.64854428  0.21372816  0.29833017    -0.06700
C2378       C  0.63296113  0.21664420  0.31641798    -0.17800
C2379       C  0.64005575  0.24342799  0.32940355     0.10500
C2380       C  0.66316353  0.26813839  0.32424793    -0.06600
C2381       C  0.67900663  0.26499442  0.30622421    -0.17800
C2382       C  0.67251122  0.23777918  0.29346477     0.10600
S2383       S  0.61806464  0.24524773  0.35204282    -0.32800
S2384       S  0.69577985  0.23500345  0.27128605    -0.32800
H2385       H  0.69406969  0.19934486  0.26926879     0.28600
H2386       H  0.61738056  0.28102479  0.35357439     0.28600
H2387       H  0.61445041  0.19842749  0.32020240     0.19200
H2388       H  0.69744485  0.28321078  0.30231381     0.19200
C2389       C  0.81808284  0.48443978  0.32045505    -0.06700
C2390       C  0.83825428  0.01110081  0.32835975    -0.17800
C2391       C  0.84913722  0.03703671  0.31617644     0.10500
C2392       C  0.83934239  0.03731802  0.29642083    -0.06600
C2393       C  0.82080957  0.01009010  0.28916621    -0.17800
C2394       C  0.81118145  0.48348579  0.30023270     0.10600
S2395       S  0.87562295  0.06866313  0.32676529    -0.32800
S2396       S  0.79227583  0.44792796  0.28803693    -0.32800
H2397       H  0.81549573  0.42447440  0.29467829     0.28600
H2398       H  0.89258247  0.07566259  0.30955360     0.28600
H2399       H  0.84469733  0.01197819  0.34366889     0.19200
H2400       H  0.81359083  0.00976112  0.27397763     0.19200
C2401       C  0.83856368  0.21600622  0.29861871    -0.06700
C2402       C  0.81655147  0.24021943  0.29168795    -0.17800
C2403       C  0.80559852  0.26714129  0.30352929     0.10500
C2404       C  0.81608105  0.26975773  0.32318910    -0.06600
C2405       C  0.83792819  0.24521795  0.33014742    -0.17800
C2406       C  0.84987665  0.21903884  0.31799273     0.10600
S2407       S  0.77689650  0.29595564  0.29283548    -0.32800
S2408       S  0.88001514  0.19083809  0.32788530    -0.32800
H2409       H  0.89639628  0.18491091  0.31023583     0.28600
H2410       H  0.79855622  0.32352161  0.29355105     0.28600
H2411       H  0.80784786  0.23812105  0.27681992     0.19200
H2412       H  0.84633861  0.24689948  0.34508410     0.19200
C2413       C  0.57153371  0.21558320  0.54591341    -0.06700
C2414       C  0.58785468  0.24150479  0.55620082    -0.17800
C2415       C  0.61645343  0.23464765  0.56649997     0.10500
C2416       C  0.62900807  0.20106844  0.56651415    -0.06600
C2417       C  0.61162863  0.17516540  0.55683677    -0.17800
C2418       C  0.58297481  0.18182720  0.54693168     0.10600
S2419       S  0.63685859  0.27014182  0.57784738    -0.32800
S2420       S  0.56365609  0.14649529  0.53458213    -0.32800
H2421       H  0.53206377  0.15934168  0.53579967     0.28600
H2422       H  0.66748360  0.26099227  0.57063839     0.28600
H2423       H  0.57916665  0.26753180  0.55533701     0.19200
H2424       H  0.62078580  0.14928855  0.55656534     0.19200
C2425       C  0.90435683  0.21431707  0.54768153    -0.06700
C2426       C  0.89088912  0.23644184  0.56167757    -0.17800
C2427       C  0.86298060  0.22752426  0.57196885     0.10500
C2428       C  0.84831678  0.19541104  0.56840387    -0.06600
C2429       C  0.86313472  0.17273813  0.55509163    -0.17800
C2430       C  0.89077972  0.18174732  0.54479645     0.10600
S2431       S  0.84649425  0.25916882  0.58836611    -0.32800
S2432       S  0.90575846  0.15195096  0.52669651    -0.32800
H2433       H  0.93827793  0.16179891  0.52810535     0.28600
H2434       H  0.81605953  0.25911941  0.57923179     0.28600
H2435       H  0.90124722  0.26153835  0.56385112     0.19200
H2436       H  0.85273375  0.14786068  0.55225104     0.19200
C2437       C  0.63152360  0.30491541  0.43618478    -0.06700
C2438       C  0.61129593  0.28111426  0.42674006    -0.17800
C2439       C  0.58302496  0.26911972  0.43565714     0.10500
C2440       C  0.57424404  0.28169871  0.45428642    -0.06600
C2441       C  0.59382812  0.30604282  0.46344522    -0.17800
C2442       C  0.62239844  0.31721978  0.45496000     0.10600
S2443       S  0.55945244  0.23771094  0.42262791    -0.32800
S2444       S  0.64642491  0.34588276  0.46966835    -0.32800
H2445       H  0.67492869  0.32672546  0.46719971     0.28600
H2446       H  0.54734594  0.22112317  0.43910253     0.28600
H2447       H  0.61763082  0.27154881  0.41237344     0.19200
H2448       H  0.58737756  0.31541857  0.47785238     0.19200
C2449       C  0.90325974  0.28666541  0.45647225    -0.06700
C2450       C  0.88380922  0.31221244  0.46467434    -0.17800
C2451       C  0.85485030  0.32206437  0.45600157     0.10500
C2452       C  0.84557536  0.30773697  0.43769914    -0.06600
C2453       C  0.86573238  0.28278702  0.42915743    -0.17800
C2454       C  0.89402283  0.27159131  0.43851033     0.10600
S2455       S  0.83034790  0.35131420  0.47009767    -0.32800
S2456       S  0.91665927  0.23760694  0.42695127    -0.32800
H2457       H  0.93123089  0.22464597  0.44380834     0.28600
H2458       H  0.80245057  0.33109095  0.46848474     0.28600
H2459       H  0.89037362  0.32315901  0.47870586     0.19200
H2460       H  0.85915052  0.27142612  0.41525801     0.19200
C2461       C  0.62255124  0.04274174  0.57008775    -0.06700
C2462       C  0.62132794  0.01153143  0.55999517    -0.17800
C2463       C  0.59427302  0.00257945  0.54881975     0.10500
C2464       C  0.56821510  0.02579465  0.54722827    -0.06600
C2465       C  0.56862203  0.05597825  0.55838770    -0.17800
C2466       C  0.59525131  0.06438437  0.57003891     0.10600
S2467       S  0.59742971  0.46054581  0.53513906    -0.32800
S2468       S  0.59298847  0.10308421  0.58441525    -0.32800
H2469       H  0.61591370  0.09365544  0.59848838     0.28600
H2470       H  0.56388633  0.45598952  0.53355404     0.28600
H2471       H  0.64209675  0.99466703  0.56016047     0.19200
H2472       H  0.54848217  0.07360279  0.55752762     0.19200
C2473       C  0.89938485  0.02508254  0.54820094    -0.06700
C2474       C  0.87652461  0.99878500  0.54952919    -0.17800
C2475       C  0.84840899  0.00277509  0.56072557     0.10500
C2476       C  0.84264460  0.03401305  0.57056448    -0.06600
C2477       C  0.86653643  0.05927342  0.57032337    -0.17800
C2478       C  0.89479157  0.05515140  0.55940956     0.10600
S2479       S  0.81994667  0.46704144  0.56132160    -0.32800
S2480       S  0.92328919  0.08977729  0.55999057    -0.32800
H2481       H  0.93462145  0.08554809  0.54084114     0.28600
H2482       H  0.80798716  0.97415839  0.57922239     0.28600
H2483       H  0.88040608  0.47392998  0.54210017     0.19200
H2484       H  0.86231361  0.08331182  0.57786940     0.19200
C2485       C  0.56959356  0.48965708  0.44773546    -0.06700
C2486       C  0.57575222  0.45464283  0.44574625    -0.17800
C2487       C  0.60225705  0.44250905  0.43510975     0.10500
C2488       C  0.62453204  0.46580702  0.42714415    -0.06600
C2489       C  0.61710498  0.50077974  0.42789031    -0.17800
C2490       C  0.58953378  0.51287132  0.43774891     0.10600
S2491       S  0.60558674  0.39700669  0.43170475    -0.32800
S2492       S  0.58344629  0.05973057  0.43744812    -0.32800
H2493       H  0.55010439  0.05877605  0.44109997     0.28600
H2494       H  0.62014297  0.39859032  0.41322706     0.28600
H2495       H  0.55983146  0.43658274  0.45268562     0.19200
H2496       H  0.63320104  0.01843671  0.42078367     0.19200
C2497       C  0.84824206  0.46872709  0.42859765    -0.06700
C2498       C  0.85436232  0.50388573  0.43001869    -0.17800
C2499       C  0.88140098  0.51631610  0.44025313     0.10500
C2500       C  0.90206062  0.49312642  0.44990198    -0.06600
C2501       C  0.89702139  0.45806665  0.44732032    -0.17800
C2502       C  0.87100686  0.44566813  0.43636098     0.10600
S2503       S  0.88957019  0.06207171  0.43887464    -0.32800
S2504       S  0.86817723  0.40041354  0.43154152    -0.32800
H2505       H  0.89269127  0.39012697  0.44442795     0.28600
H2506       H  0.92303872  0.05977688  0.44202262     0.28600
H2507       H  0.83748203  0.52178421  0.42368716     0.19200
H2508       H  0.91357266  0.44034875  0.45409501     0.19200
N2509       N  0.93653963  0.01374442  0.49838850    -0.37200
N2510       N  0.48518214  0.01037629  0.46655206    -0.57700
N2511       N  0.53396301  0.50949915  0.49659321    -0.37200
N2512       N  0.48472239  0.51664020  0.52683726    -0.57700
C2513       C  0.91861461  0.01639643  0.48195302     0.26400
C2514       C  0.91767955  0.52182236  0.51440107     0.26400
C2515       C  0.55229768  0.01520218  0.48090057     0.26400
C2516       C  0.55210193  0.52021076  0.51188547     0.26400
C2517       C  0.96063753  0.99911987  0.45775907     0.35000
C2518       C  0.51119151  0.00124862  0.45574321     0.35000
C2519       C  0.95829631  0.51630404  0.54110799     0.35000
C2520       C  0.51115604  0.51414282  0.53828039     0.35000
C2521       C  0.88790491  0.02782565  0.48681205    -0.22400
C2522       C  0.88726876  0.53054741  0.50757306    -0.22400
C2523       C  0.58244881  0.02738763  0.48616621    -0.22400
C2524       C  0.58239857  0.52959296  0.50524770    -0.22400
C2525       C  0.97063240  0.98415897  0.44037760    -0.23500
C2526       C  0.50147944  0.98982080  0.43750167    -0.23500
C2527       C  0.96728169  0.51228866  0.56040794    -0.23500
C2528       C  0.50202305  0.50859120  0.55740610    -0.23500
C2529       C  0.92805486  0.00489230  0.46313014    -0.18800
C2530       C  0.92617710  0.52010715  0.53443346    -0.18800
C2531       C  0.54328032  0.51871036  0.53183997    -0.18800
C2532       C  0.54365486  0.00416914  0.46191368    -0.18800
H2533       H  0.86755817  0.03159849  0.47719519     0.14100
H2534       H  0.86652842  0.53852225  0.51606529     0.14100
H2535       H  0.60301727  0.03152934  0.47682115     0.14100
H2536       H  0.60257283  0.53882060  0.51381236     0.14100
H2537       H  0.95565914  0.97463275  0.42860241     0.12300
H2538       H  0.51665555  0.98141863  0.42554621     0.12300
H2539       H  0.95157840  0.51022223  0.57292431     0.12300
H2540       H  0.51762659  0.50590847  0.56995722     0.12300
H2541       H  0.95873953  0.00145489  0.49940720     0.25600
H2542       H  0.51191456  0.49706557  0.49746438     0.25600
N2543       N  0.53715850  0.74654042  0.49861590    -0.37200
N2544       N  0.98851479  0.72887952  0.52882750    -0.57700
N2545       N  0.93971893  0.74933141  0.50087167    -0.37200
N2546       N  0.98865581  0.76641395  0.47227339    -0.57700
C2547       C  0.55506508  0.73053114  0.51229267     0.26400
C2548       C  0.55525083  0.74798236  0.48224882     0.26400
C2549       C  0.92106404  0.73331010  0.51410075     0.26400
C2550       C  0.92145994  0.75391117  0.48472929     0.26400
C2551       C  0.51385649  0.72752832  0.53853016     0.35000
C2552       C  0.96231297  0.72549327  0.54028973     0.35000
C2553       C  0.51550099  0.77630913  0.46073236     0.35000
C2554       C  0.96270941  0.78052482  0.46351054     0.35000
C2555       C  0.58482075  0.72161753  0.50443855    -0.22400
C2556       C  0.58486335  0.73249001  0.48548482    -0.22400
C2557       C  0.89049710  0.72817846  0.50627927    -0.22400
C2558       C  0.89087961  0.74078355  0.48775362    -0.22400
C2559       C  0.50382403  0.72205985  0.55748591    -0.23500
C2560       C  0.97183048  0.71912326  0.55929008    -0.23500
C2561       C  0.50649301  0.79949936  0.44663177    -0.23500
C2562       C  0.97256684  0.80240104  0.44898998    -0.23500
C2563       C  0.54613673  0.72580011  0.53201306    -0.18800
C2564       C  0.54749406  0.76701615  0.46547567    -0.18800
C2565       C  0.93034883  0.77277037  0.46811091    -0.18800
C2566       C  0.93015120  0.72476857  0.53340018    -0.18800
H2567       H  0.60479856  0.70921509  0.51167418     0.14100
H2568       H  0.60485763  0.73029704  0.47540689     0.14100
H2569       H  0.86968505  0.71704721  0.51321754     0.14100
H2570       H  0.87057579  0.74108057  0.47781264     0.14100
H2571       H  0.51884401  0.71765532  0.57012949     0.12300
H2572       H  0.95650587  0.71426410  0.57169925     0.12300
H2573       H  0.52223271  0.81447143  0.43754176     0.12300
H2574       H  0.95740264  0.81711487  0.43934577     0.12300
H2575       H  0.51594996  0.76005746  0.50109001     0.25600
H2576       H  0.96203486  0.76030632  0.50353651     0.25600
N2577       N  0.77694841  0.82330988  0.40732698    -0.06700
N2578       N  0.80234631  0.80391151  0.41132456    -0.58800
N2579       N  0.70128248  0.84740836  0.41910614    -0.06300
N2580       N  0.67660913  0.84552467  0.43103744    -0.60900
N2581       N  0.70141784  0.82156128  0.40676435    -0.05900
N2582       N  0.67653848  0.80131748  0.41029304    -0.58800
N2583       N  0.77541138  0.84902061  0.41975041    -0.05600
N2584       N  0.79946632  0.84777323  0.43224546    -0.61300
C2585       C  0.81603001  0.81943677  0.42710721     0.95500
C2586       C  0.66145588  0.81656898  0.42570909     0.95300
N2587       N  0.69799530  0.94856648  0.40327200    -0.06900
N2588       N  0.67112689  0.96694384  0.40449241    -0.59400
N2589       N  0.77367777  0.92787482  0.41784615    -0.05000
N2590       N  0.79905211  0.93144696  0.42925816    -0.60600
N2591       N  0.77404091  0.95055575  0.40392702    -0.06900
N2592       N  0.79993431  0.97018713  0.40563832    -0.59600
N2593       N  0.69868584  0.92578428  0.41713882    -0.04600
N2594       N  0.67249604  0.92798428  0.42798875    -0.60700
Mn2595     Mn  0.73729016  0.88760136  0.41897175     1.18400
C2596       C  0.65531789  0.95357262  0.41994847     0.97600
C2597       C  0.81542876  0.95771085  0.42150184     0.98300
N2598       N  0.70356747  0.81520340  0.36036878    -0.06900
N2599       N  0.68605931  0.78835204  0.35546467    -0.63200
N2600       N  0.77627242  0.83923258  0.34664387    -0.05700
N2601       N  0.79413883  0.82851811  0.33187482    -0.63900
N2602       N  0.77659281  0.81650108  0.36064129    -0.06400
N2603       N  0.79468207  0.79005623  0.35545082    -0.63500
N2604       N  0.70342467  0.83752165  0.34615857    -0.05300
N2605       N  0.68608056  0.82591334  0.33136169    -0.64200
Mn2606     Mn  0.73969802  0.81812626  0.38402368     1.10700
C2607       C  0.67485868  0.79544198  0.33742375     0.98800
C2608       C  0.80562049  0.79781596  0.33743471     0.98900
N2609       N  0.77380012  0.94615808  0.35791894    -0.06400
N2610       N  0.79304062  0.97103608  0.35246600    -0.61800
N2611       N  0.70120304  0.91973143  0.34439141    -0.05700
N2612       N  0.68196037  0.92721478  0.32965498    -0.58500
N2613       N  0.70049748  0.94452950  0.35748337    -0.07000
N2614       N  0.68066289  0.96892446  0.35196768    -0.61400
N2615       N  0.77457107  0.92104511  0.34503644    -0.06000
N2616       N  0.79423249  0.92863450  0.33063544    -0.58500
Mn2617     Mn  0.73660011  0.94852304  0.38078465     1.20200
Mn2618     Mn  0.73884578  0.87947876  0.34529040     1.10100
Cl2619     Cl  0.73816508  0.88335819  0.38216330    -0.86500
C2620       C  0.80575321  0.95987017  0.33537957     0.95800
C2621       C  0.66919114  0.95799375  0.33457437     0.95600
N2622       N  0.77648972  0.67983369  0.59457039    -0.06700
N2623       N  0.80305215  0.69793485  0.59218551    -0.58800
N2624       N  0.70128043  0.65937118  0.58072406    -0.06300
N2625       N  0.67689239  0.66235329  0.56860152    -0.60900
N2626       N  0.70103340  0.68420719  0.59370559    -0.05900
N2627       N  0.67595972  0.70461157  0.59067353    -0.58800
N2628       N  0.77528093  0.65496288  0.58162134    -0.05600
N2629       N  0.80073737  0.65566353  0.57017454    -0.61300
C2630       C  0.81792152  0.68266523  0.57679306     0.95500
C2631       C  0.66122635  0.69066429  0.57477688     0.95300
N2632       N  0.69541073  0.55743980  0.59592078    -0.06900
N2633       N  0.66901324  0.53881747  0.59377802    -0.59400
N2634       N  0.77110512  0.57600294  0.58253509    -0.05000
N2635       N  0.79573219  0.57083263  0.57076833    -0.60600
N2636       N  0.77067393  0.55308594  0.59633707    -0.06900
N2637       N  0.79534874  0.53176793  0.59422455    -0.59600
N2638       N  0.69677052  0.58070217  0.58230860    -0.04600
N2639       N  0.67135389  0.57874482  0.57076196    -0.60700
Mn2640     Mn  0.73614864  0.61773809  0.58126943     1.18400
C2641       C  0.65431719  0.55254473  0.57804498     0.97600
C2642       C  0.81045028  0.54295372  0.57796972     0.98300
N2643       N  0.70148028  0.68878338  0.63972907    -0.06900
N2644       N  0.68411937  0.71604983  0.64404922    -0.63200
N2645       N  0.77347723  0.66242858  0.65450051    -0.05700
N2646       N  0.79229366  0.67207057  0.66908362    -0.63900
N2647       N  0.77452297  0.68505634  0.64049174    -0.06400
N2648       N  0.79411650  0.71024236  0.64534514    -0.63500
N2649       N  0.70038974  0.66674865  0.65404937    -0.05300
N2650       N  0.68241412  0.67910943  0.66840903    -0.64200
Mn2651     Mn  0.73838697  0.68537381  0.61691284     1.10700
C2652       C  0.67204412  0.70976696  0.66190687     0.98800
C2653       C  0.80514435  0.70196032  0.66324682     0.98900
N2654       N  0.76905528  0.55575118  0.64267679    -0.06400
N2655       N  0.78718226  0.52980835  0.64818777    -0.61800
N2656       N  0.69666225  0.58454702  0.65527883    -0.05700
N2657       N  0.67758861  0.57677648  0.66996375    -0.58500
N2658       N  0.69583869  0.56012550  0.64197239    -0.07000
N2659       N  0.67603621  0.53579342  0.64739052    -0.61400
N2660       N  0.76982494  0.58031064  0.65593789    -0.06000
N2661       N  0.78837703  0.57122372  0.67068674    -0.58500
Mn2662     Mn  0.73277035  0.55560934  0.61908408     1.20200
Mn2663     Mn  0.73507602  0.62349102  0.65530713     1.10100
Cl2664     Cl  0.73562909  0.62052690  0.61831892    -0.86500
C2665       C  0.79929395  0.53975943  0.66565635     0.95800
C2666       C  0.66455030  0.54630433  0.66488965     0.95600
N2667       N  0.69284676  0.00741166  0.00003564    -0.37200
N2668       N  0.73633005  0.98049288  0.02879966    -0.57700
N2669       N  0.78923772  0.98832301  0.00059351    -0.37200
N2670       N  0.74391515  0.51818257  0.97254353    -0.57700
C2671       C  0.67323775  0.00603048  0.01575109     0.26400
C2672       C  0.67712983  0.52599649  0.98717924     0.26400
C2673       C  0.80555016  0.98245820  0.01732124     0.26400
C2674       C  0.80994445  0.50397273  0.98715765     0.26400
C2675       C  0.70820131  0.97133092  0.03716842     0.35000
C2676       C  0.75988508  0.96339769  0.03815829     0.35000
C2677       C  0.71852981  0.52537029  0.96093829     0.35000
C2678       C  0.77035883  0.51812373  0.96108532     0.35000
C2679       C  0.64581401  0.02545590  0.01250092    -0.22400
C2680       C  0.64835368  0.53778065  0.99515953    -0.22400
C2681       C  0.83761120  0.99168702  0.01501541    -0.22400
C2682       C  0.84061171  0.50560048  0.99525483    -0.22400
C2683       C  0.71392394  0.94851807  0.05205600    -0.23500
C2684       C  0.74681824  0.94371898  0.05280044    -0.23500
C2685       C  0.72884957  0.53004540  0.94196223    -0.23500
C2686       C  0.76181247  0.52568446  0.94208542    -0.23500
C2687       C  0.67774787  0.98480001  0.03203996    -0.18800
C2688       C  0.68680568  0.53111620  0.96768454    -0.18800
C2689       C  0.80228768  0.51433897  0.96796441    -0.18800
C2690       C  0.79309414  0.96659462  0.03414422    -0.18800
H2691       H  0.62533440  0.02885575  0.02211202     0.14100
H2692       H  0.63021398  0.55353444  0.98831947     0.14100
H2693       H  0.85691243  0.98967688  0.02558656     0.14100
H2694       H  0.86252054  0.51466704  0.98852280     0.14100
H2695       H  0.69633015  0.93689144  0.06151630     0.12300
H2696       H  0.75964571  0.92752202  0.06287837     0.12300
H2697       H  0.71431439  0.53699453  0.92949989     0.12300
H2698       H  0.77772371  0.52830596  0.92970441     0.12300
H2699       H  0.71260107  0.99162365  0.99738240     0.25600
H2700       H  0.76585239  0.98027076  0.99749240     0.25600
N2701       N  0.69417064  0.73939505  0.99990071    -0.37200
N2702       N  0.74164079  0.72626897  0.97003578    -0.57700
N2703       N  0.79075651  0.73389879  0.99969437    -0.37200
N2704       N  0.74351591  0.74470550  0.03013440    -0.57700
C2705       C  0.67544413  0.72768367  0.98511373     0.26400
C2706       C  0.67627654  0.73840977  0.01634712     0.26400
C2707       C  0.80816538  0.72110134  0.98464545     0.26400
C2708       C  0.80889263  0.73062595  0.01596419     0.26400
C2709       C  0.71564586  0.73116822  0.95855247     0.35000
C2710       C  0.76772319  0.72884233  0.95843490     0.35000
C2711       C  0.71800781  0.75814286  0.03980486     0.35000
C2712       C  0.77028630  0.75515102  0.03976342     0.35000
C2713       C  0.64550419  0.71845599  0.99235195    -0.22400
C2714       C  0.64590911  0.72562590  0.01203003    -0.22400
C2715       C  0.83750391  0.70894096  0.99146241    -0.22400
C2716       C  0.83796244  0.71498062  0.01126022    -0.22400
C2717       C  0.72520773  0.73647996  0.93947890    -0.23500
C2718       C  0.75835030  0.73493825  0.93940285    -0.23500
C2719       C  0.72850887  0.77635232  0.05601760    -0.23500
C2720       C  0.76172752  0.77462921  0.05592903    -0.23500
C2721       C  0.68348266  0.72900297  0.96506845    -0.18800
C2722       C  0.68541834  0.75284122  0.03448668    -0.18800
C2723       C  0.80216836  0.74693886  0.03399665    -0.18800
C2724       C  0.79968791  0.72384176  0.96476458    -0.18800
H2725       H  0.62503537  0.70887264  0.98417262     0.14100
H2726       H  0.62583424  0.72264587  0.02192662     0.14100
H2727       H  0.85705354  0.69811725  0.98294133     0.14100
H2728       H  0.85802722  0.71004885  0.02095484     0.14100
H2729       H  0.70995095  0.74090222  0.92694412     0.12300
H2730       H  0.77375254  0.73784153  0.92681057     0.12300
H2731       H  0.71380138  0.78967050  0.06668938     0.12300
H2732       H  0.77766857  0.78653841  0.06646864     0.12300
H2733       H  0.71588622  0.75228169  0.99842275     0.25600
H2734       H  0.77036310  0.74922542  0.99842346     0.25600
N2735       N  0.95484940  0.69381706  0.90347253    -0.06700
N2736       N  0.92808651  0.71223808  0.90463495    -0.58800
N2737       N  0.03027563  0.67140740  0.91708781    -0.06300
N2738       N  0.55467352  0.67882005  0.92827577    -0.60900
N2739       N  0.03030163  0.69421318  0.90322129    -0.05900
N2740       N  0.55436171  0.71770965  0.90463062    -0.58800
N2741       N  0.95561659  0.67116357  0.91742326    -0.05600
N2742       N  0.92952319  0.67335806  0.92826935    -0.61300
C2743       C  0.91273535  0.69909115  0.92023354     0.95500
C2744       C  0.57023264  0.70533705  0.92030078     0.95300
N2745       N  0.03056095  0.56769676  0.90676710    -0.06900
N2746       N  0.55873105  0.55366135  0.90951116    -0.59400
N2747       N  0.95612171  0.59290303  0.92018052    -0.05000
N2748       N  0.93207230  0.59138696  0.93262823    -0.60600
N2749       N  0.95488848  0.56739003  0.90764702    -0.06900
N2750       N  0.92969329  0.54781710  0.91152879    -0.59600
N2751       N  0.03035167  0.59309326  0.91939313    -0.04600
N2752       N  0.55649022  0.59684906  0.93100178    -0.60700
Mn2753     Mn  0.99310408  0.63227102  0.91910575     1.18400
C2754       C  0.57351465  0.56946381  0.92474455     0.97600
C2755       C  0.91557163  0.56327946  0.92722387     0.98300
N2756       N  0.52795340  0.69427647  0.85780389    -0.06900
N2757       N  0.54728014  0.71927090  0.85266807    -0.63200
N2758       N  0.95507976  0.66568457  0.84447338    -0.05700
N2759       N  0.93627352  0.67430098  0.82971157    -0.63900
N2760       N  0.95537769  0.69037012  0.85764011    -0.06400
N2761       N  0.93667013  0.71571453  0.85213201    -0.63500
N2762       N  0.52891500  0.66939925  0.84479799    -0.05300
N2763       N  0.54878420  0.67729134  0.83052533    -0.64200
Mn2764     Mn  0.99226797  0.69323420  0.88061687     1.10700
C2765       C  0.56025483  0.70843199  0.83562320     0.98800
C2766       C  0.92448761  0.70547297  0.83477099     0.98900
N2767       N  0.95576423  0.56063594  0.86087216    -0.06400
N2768       N  0.93916661  0.53319363  0.85582843    -0.61800
N2769       N  0.53171134  0.58810485  0.84708569    -0.05700
N2770       N  0.55125786  0.57824614  0.83294470    -0.58500
N2771       N  0.53183339  0.56550778  0.86111522    -0.07000
N2772       N  0.55132067  0.53993873  0.85664287    -0.61400
N2773       N  0.95568372  0.58276571  0.84652516    -0.06000
N2774       N  0.93891662  0.57047799  0.83161485    -0.58500
Mn2775     Mn  0.99222711  0.56330335  0.88432904     1.20200
Mn2776     Mn  0.99193661  0.62450086  0.84526173     1.10100
Cl2777     Cl  0.99220470  0.62826536  0.88220557    -0.86500
C2778       C  0.92838252  0.53969087  0.83763034     0.95800
C2779       C  0.56322301  0.54799785  0.83894414     0.95600
N2780       N  0.63770680  0.87804859  0.72389986    -0.37200
N2781       N  0.62437075  0.92932856  0.75372061    -0.57700
N2782       N  0.61251937  0.87651523  0.78199548    -0.37200
N2783       N  0.62312820  0.82516278  0.75139101    -0.57700
C2784       C  0.63576224  0.90632536  0.71287847     0.26400
C2785       C  0.63589245  0.85078648  0.71170576     0.26400
C2786       C  0.60016119  0.90419730  0.79136349     0.26400
C2787       C  0.59928379  0.84855516  0.79009062     0.26400
C2788       C  0.63680195  0.94935721  0.73973940     0.35000
C2789       C  0.62415399  0.94824983  0.77028352     0.35000
C2790       C  0.63530253  0.80566506  0.73676662     0.35000
C2791       C  0.62155271  0.80496597  0.76715695     0.35000
C2792       C  0.63299865  0.89694681  0.69340395    -0.22400
C2793       C  0.63311947  0.86184270  0.69266371    -0.22400
C2794       C  0.57901372  0.89367076  0.80572146    -0.22400
C2795       C  0.57853743  0.85852950  0.80495763    -0.22400
C2796       C  0.64465274  0.98106949  0.74743083    -0.23500
C2797       C  0.63681479  0.98030872  0.76682955    -0.23500
C2798       C  0.64148798  0.77297571  0.74326122    -0.23500
C2799       C  0.63279717  0.77253316  0.76253016    -0.23500
C2800       C  0.63898071  0.94020659  0.71984970    -0.18800
C2801       C  0.63860253  0.81630564  0.71728586    -0.18800
C2802       C  0.60681127  0.81433252  0.78498981    -0.18800
C2803       C  0.60867679  0.93851580  0.78768568    -0.18800
H2804       H  0.63156248  0.91366029  0.68099268     0.14100
H2805       H  0.63164749  0.84623827  0.67958766     0.14100
H2806       H  0.56544725  0.90961094  0.81576544     0.14100
H2807       H  0.56455287  0.84218815  0.81430977     0.14100
H2808       H  0.65872178  0.50314919  0.74117630     0.12300
H2809       H  0.64117187  0.50217366  0.77811033     0.12300
H2810       H  0.65076296  0.75153017  0.73491111     0.12300
H2811       H  0.63398987  0.75063087  0.77195546     0.12300
H2812       H  0.64383852  0.87742673  0.73857637     0.25600
H2813       H  0.63133804  0.87652551  0.77196253     0.25600
N2814       N  0.86781057  0.92436567  0.74876183    -0.37200
N2815       N  0.85524815  0.87267485  0.71868047    -0.57700
N2816       N  0.87322019  0.82088063  0.74626691    -0.37200
N2817       N  0.88803612  0.87236286  0.77561802    -0.57700
C2818       C  0.86549030  0.94339044  0.73251620     0.26400
C2819       C  0.88356793  0.94323513  0.76239093     0.26400
C2820       C  0.87239381  0.80261026  0.72946844     0.26400
C2821       C  0.88958258  0.80221177  0.75944532     0.26400
C2822       C  0.84086750  0.90000394  0.71055733     0.35000
C2823       C  0.84369711  0.84484146  0.70922671     0.35000
C2824       C  0.88669501  0.89941942  0.78797710     0.35000
C2825       C  0.88862766  0.84417214  0.78674993     0.35000
C2826       C  0.88002675  0.97472309  0.73578822    -0.22400
C2827       C  0.89168558  0.97452574  0.75459447    -0.22400
C2828       C  0.88880808  0.77208542  0.73190757    -0.22400
C2829       C  0.89968858  0.77183482  0.75086011    -0.22400
C2830       C  0.82025070  0.88955617  0.69573375    -0.23500
C2831       C  0.82199739  0.85451520  0.69491721    -0.23500
C2832       C  0.88643393  0.88836849  0.80708330    -0.23500
C2833       C  0.88763013  0.85331271  0.80630316    -0.23500
C2834       C  0.84816624  0.93422780  0.71547367    -0.18800
C2835       C  0.88832856  0.93384891  0.78208703    -0.18800
C2836       C  0.89293000  0.81061256  0.77941633    -0.18800
C2837       C  0.85397299  0.81108106  0.71285654    -0.18800
H2838       H  0.88188181  0.49528273  0.72649069     0.14100
H2839       H  0.90618885  0.49438477  0.76213666     0.14100
H2840       H  0.89179846  0.75171385  0.72128979     0.14100
H2841       H  0.91279447  0.75125748  0.75768742     0.14100
H2842       H  0.80574637  0.90552181  0.68637811     0.12300
H2843       H  0.80902999  0.83811196  0.68484918     0.12300
H2844       H  0.88581449  0.90392980  0.82019845     0.12300
H2845       H  0.88826014  0.83650645  0.81869398     0.12300
H2846       H  0.85554157  0.90140225  0.75117305     0.25600
H2847       H  0.85929762  0.84267126  0.74941482     0.25600
N2848       N  0.59648715  0.62810409  0.22166254    -0.37200
N2849       N  0.60895112  0.57510654  0.24940164    -0.57700
N2850       N  0.62711587  0.62643643  0.27873853    -0.37200
N2851       N  0.61744563  0.67919373  0.25028284    -0.57700
C2852       C  0.59592478  0.60038734  0.20968865     0.26400
C2853       C  0.59868959  0.65598805  0.21034466     0.26400
C2854       C  0.63725883  0.59746108  0.28732414     0.26400
C2855       C  0.64250633  0.65276990  0.28763426     0.26400
C2856       C  0.59387266  0.55654669  0.23540012     0.35000
C2857       C  0.60902486  0.55592342  0.26560384     0.35000
C2858       C  0.60475212  0.69990815  0.23666922     0.35000
C2859       C  0.62252827  0.69885276  0.26629890     0.35000
C2860       C  0.59772729  0.61090544  0.19049547    -0.22400
C2861       C  0.59892726  0.64596860  0.19090066    -0.22400
C2862       C  0.65909115  0.60548846  0.30202025    -0.22400
C2863       C  0.66235511  0.64043517  0.30222928    -0.22400
C2864       C  0.58403873  0.52555197  0.24281220    -0.23500
C2865       C  0.59379131  0.52509272  0.26194086    -0.23500
C2866       C  0.60215110  0.73290778  0.24402883    -0.23500
C2867       C  0.61325327  0.73217609  0.26281694    -0.23500
C2868       C  0.59148066  0.56617686  0.21564387    -0.18800
C2869       C  0.59824938  0.69020025  0.21716677    -0.18800
C2870       C  0.63781272  0.68768180  0.28348528    -0.18800
C2871       C  0.62588946  0.56424312  0.28289914    -0.18800
H2872       H  0.59755324  0.59507235  0.17748324     0.14100
H2873       H  0.59969628  0.66214406  0.17825515     0.14100
H2874       H  0.67122740  0.58802039  0.31170272     0.14100
H2875       H  0.67752288  0.65509461  0.31204393     0.14100
H2876       H  0.57073109  0.00569365  0.23496328     0.12300
H2877       H  0.59016452  0.00383022  0.27158617     0.12300
H2878       H  0.59379144  0.75543056  0.23657581     0.12300
H2879       H  0.61485011  0.75385245  0.27266335     0.12300
H2880       H  0.59173810  0.62844508  0.23649895     0.25600
H2881       H  0.60823524  0.62826181  0.26883198     0.25600
N2882       N  0.86809508  0.57642910  0.24985816    -0.37200
N2883       N  0.85237440  0.62828024  0.27921322    -0.57700
N2884       N  0.87246746  0.68007694  0.25235926    -0.37200
N2885       N  0.89005331  0.62819784  0.22358997    -0.57700
C2886       C  0.86474727  0.55740136  0.26603916     0.26400
C2887       C  0.88408904  0.55714226  0.23649823     0.26400
C2888       C  0.87000745  0.69837924  0.26912650     0.26400
C2889       C  0.89062312  0.69837059  0.23993324     0.26400
C2890       C  0.83747354  0.60089642  0.28679343     0.35000
C2891       C  0.83953597  0.65608758  0.28810442     0.35000
C2892       C  0.89001581  0.60117811  0.21116695     0.35000
C2893       C  0.89200403  0.65641185  0.21255596     0.35000
C2894       C  0.87892279  0.52571328  0.26295063    -0.22400
C2895       C  0.89063024  0.52534538  0.24424792    -0.28400
C2896       C  0.88698156  0.72858401  0.26741049    -0.22400
C2897       C  0.90013575  0.72851983  0.24899370    -0.22400
C2898       C  0.81489532  0.61133830  0.30052924    -0.23500
C2899       C  0.81629277  0.64640037  0.30140988    -0.23500
C2900       C  0.89230483  0.61222981  0.19213006    -0.23500
C2901       C  0.89298228  0.64724155  0.19298216    -0.23500
C2902       C  0.84651115  0.56674024  0.28273304    -0.18800
C2903       C  0.89066998  0.56678101  0.21707915    -0.18800
C2904       C  0.89609964  0.68990824  0.22010160    -0.18800
C2905       C  0.85037660  0.68975297  0.28515875    -0.18800
H2906       H  0.88123836  0.00309880  0.27199015     0.14100
H2907       H  0.90196310  0.00291920  0.23593922     0.14100
H2908       H  0.88913546  0.74882839  0.27817759     0.14100
H2909       H  0.91442631  0.74874891  0.24281558     0.14100
H2910       H  0.79953636  0.59532634  0.30926562     0.12300
H2911       H  0.80215498  0.66282855  0.31089443     0.12300
H2912       H  0.89368878  0.59678075  0.17900173     0.12300
H2913       H  0.89492294  0.66394167  0.18060512     0.12300
H2914       H  0.85656679  0.59954034  0.24726223     0.25600
H2915       H  0.85889685  0.65866071  0.24867252     0.25600
N2916       N  0.95530729  0.80474066  0.09476114    -0.06700
N2917       N  0.93032531  0.78390449  0.09250322    -0.58800
N2918       N  0.02951903  0.83039414  0.08052284    -0.06300
N2919       N  0.55508256  0.82809336  0.06922799    -0.60900
N2920       N  0.03103797  0.80787471  0.09450014    -0.05900
N2921       N  0.55997712  0.78950321  0.09272618    -0.58800
N2922       N  0.95525106  0.82758636  0.08096709    -0.05600
N2923       N  0.93059690  0.82309987  0.06919009    -0.61300
C2924       C  0.91498195  0.79592087  0.07641223     0.95500
C2925       C  0.57388716  0.80333080  0.07671320     0.95300
N2926       N  0.02653498  0.93435592  0.09042652    -0.06900
N2927       N  0.54748533  0.95505964  0.08754337    -0.59400
N2928       N  0.95197497  0.90554876  0.07956966    -0.05000
N2929       N  0.92514698  0.90375820  0.06938364    -0.60600
N2930       N  0.95071041  0.93093030  0.09220134    -0.06900
N2931       N  0.92266783  0.94703715  0.09069893    -0.59600
N2932       N  0.02606736  0.90859524  0.07806090    -0.04600
N2933       N  0.54762910  0.91135950  0.06638908    -0.60700
Mn2934     Mn  0.99075257  0.86805028  0.07925747     1.18400
C2935       C  0.56167586  0.94106744  0.07147280     0.97600
C2936       C  0.90686551  0.92962071  0.07638331     0.98300
N2937       N  0.53221219  0.81021824  0.14085366    -0.06900
N2938       N  0.55214897  0.78591912  0.14634403    -0.63200
N2939       N  0.95725883  0.83383279  0.15406669    -0.05700
N2940       N  0.93901267  0.82479681  0.16894074    -0.63900
N2941       N  0.95767058  0.80923634  0.14082453    -0.06400
N2942       N  0.93975670  0.78347964  0.14642970    -0.63500
N2943       N  0.53104715  0.83468757  0.15414688    -0.05300
N2944       N  0.54998374  0.82696147  0.16896226    -0.64200
Mn2945     Mn  0.99361855  0.80729756  0.11744002     1.10700
C2946       C  0.56326064  0.79654911  0.16386982     0.98800
C2947       C  0.92787959  0.79340857  0.16390935     0.98900
N2948       N  0.95462999  0.93901577  0.13839248    -0.06400
N2949       N  0.93742549  0.96588415  0.14391339    -0.61800
N2950       N  0.52655282  0.91715901  0.15247408    -0.05700
N2951       N  0.54413685  0.93012717  0.16684583    -0.58500
N2952       N  0.52496844  0.93898742  0.13802471    -0.07000
N2953       N  0.54163875  0.96670575  0.14229427    -0.61400
N2954       N  0.95563698  0.91650837  0.15250136    -0.06000
N2955       N  0.93922515  0.92790983  0.16773691    -0.58500
Mn2956     Mn  0.98978131  0.93712700  0.11411951     1.20200
Mn2957     Mn  0.99292599  0.87614229  0.15307119     1.10100
Cl2958     Cl  0.99173824  0.87221035  0.11611263    -0.86500
C2959       C  0.92761910  0.95857090  0.16219306     0.95800
C2960       C  0.55353087  0.96104929  0.16031809     0.95600
C2961       C  0.90024021  0.53968182  0.20274054    -0.06700
C2962       C  0.93089287  0.52472846  0.20455403    -0.17800
C2963       C  0.93904175  0.99710070  0.19132236     0.10500
C2964       C  0.91812159  0.98565061  0.17631402    -0.06600
C2965       C  0.88968985  0.50193655  0.17502538    -0.17800
C2966       C  0.87920347  0.52763991  0.18795108     0.10600
S2967       S  0.97756302  0.97758157  0.19613239    -0.32800
S2968       S  0.83866188  0.54362704  0.18491964    -0.32800
H2969       H  0.83334805  0.55211077  0.20460233     0.28600
H2970       H  0.96396317  0.94588846  0.20070391     0.28600
H2971       H  0.94709598  0.53364071  0.21592103     0.19200
H2972       H  0.87378532  0.49346839  0.16340348     0.19200
C2973       C  0.91922938  0.76790276  0.17863779    -0.06700
C2974       C  0.93979780  0.73968970  0.18090937    -0.17800
C2975       C  0.93435580  0.71553807  0.19531158     0.10500
C2976       C  0.90590807  0.71758479  0.20660623    -0.06600
C2977       C  0.88530663  0.74586882  0.20436219    -0.17800
C2978       C  0.89197697  0.77129900  0.19078085     0.10600
S2979       S  0.96506340  0.68341128  0.19884159    -0.32800
S2980       S  0.86435314  0.80676763  0.18928353    -0.32800
H2981       H  0.86861215  0.81265634  0.16929318     0.28600
H2982       H  0.95874124  0.67842876  0.21872600     0.28600
H2983       H  0.96105930  0.73706640  0.17184005     0.19200
H2984       H  0.86357819  0.74787213  0.21307842     0.19200
C2985       C  0.56284613  0.98916654  0.17381525    -0.06700
C2986       C  0.59099657  0.98541965  0.18497900    -0.17800
C2987       C  0.60248547  0.50976866  0.19766036     0.10500
C2988       C  0.58348099  0.53949315  0.20057030    -0.06600
C2989       C  0.55570968  0.54382860  0.18911353    -0.17800
C2990       C  0.54636652  0.51946359  0.17516262     0.10600
S2991       S  0.64006615  0.00563670  0.20947125    -0.32800
S2992       S  0.51136551  0.52980828  0.16062576    -0.32800
H2993       H  0.49693649  0.99553754  0.16065859     0.28600
H2994       H  0.64873150  0.53786204  0.21136276     0.28600
H2995       H  0.60561695  0.96263815  0.18319498     0.19200
H2996       H  0.54108547  0.56656629  0.19107576     0.19200
C2997       C  0.59019211  0.71767442  0.20330120    -0.06700
C2998       C  0.55944611  0.73250754  0.20456632    -0.17800
C2999       C  0.55055502  0.75934255  0.19250768     0.10500
C3000       C  0.57260429  0.77116826  0.17841921    -0.06600
C3001       C  0.60326165  0.75618668  0.17703554    -0.17800
C3002       C  0.61264820  0.73025852  0.18970479     0.10600
S3003       S  0.51077912  0.77716759  0.19586411    -0.32800
S3004       S  0.65341686  0.71433895  0.18776237    -0.32800
H3005       H  0.65690724  0.70543354  0.20742441     0.28600
H3006       H  0.50384351  0.77956308  0.17589512     0.28600
H3007       H  0.54235135  0.72323078  0.21519960     0.19200
H3008       H  0.62013797  0.76507525  0.16617802     0.19200
C3009       C  0.57586437  0.52135119  0.82547657    -0.06700
C3010       C  0.59600510  0.49595004  0.83320838    -0.17800
C3011       C  0.60783698  0.96886704  0.82093888     0.10500
C3012       C  0.59779661  0.96630632  0.80128328    -0.06600
C3013       C  0.57716742  0.99146432  0.79384861    -0.17800
C3014       C  0.56716500  0.51928604  0.80550907     0.10600
S3015       S  0.63583951  0.93932298  0.83179668    -0.32800
S3016       S  0.03702112  0.54446531  0.79360681    -0.32800
H3017       H  0.01254982  0.54314054  0.80768223     0.28600
H3018       H  0.65287532  0.93165581  0.81459492     0.28600
H3019       H  0.60285777  0.49720678  0.84844663     0.19200
H3020       H  0.56924250  0.98967145  0.77881197     0.19200
C3021       C  0.57429564  0.73279203  0.82171264    -0.06700
C3022       C  0.59771845  0.75574030  0.82864869    -0.17800
C3023       C  0.60947301  0.78195160  0.81693311     0.10500
C3024       C  0.59645384  0.78642148  0.79809038    -0.06600
C3025       C  0.57301229  0.76354306  0.79117956    -0.17800
C3026       C  0.56233048  0.73651888  0.80253645     0.10600
S3027       S  0.64085976  0.80875656  0.82692836    -0.32800
S3028       S  0.53189084  0.70922292  0.79211592    -0.32800
H3029       H  0.04994220  0.67656680  0.79213082     0.28600
H3030       H  0.65484107  0.81771111  0.80906992     0.28600
H3031       H  0.60698276  0.75316418  0.84333779     0.19200
H3032       H  0.56297789  0.76679501  0.77672037     0.19200
C3033       C  0.89741076  0.96072104  0.79683359    -0.06700
C3034       C  0.92718333  0.95798106  0.80650194    -0.17800
C3035       C  0.93739410  0.98265147  0.82008625     0.10500
C3036       C  0.91947458  0.51215832  0.82365761    -0.06600
C3037       C  0.88905358  0.51349798  0.81471171    -0.17800
C3038       C  0.87733936  0.98908439  0.80106029     0.10600
S3039       S  0.97647606  0.97581947  0.83113117    -0.32800
S3040       S  0.83796596  0.99295856  0.78995724    -0.32800
H3041       H  0.83253559  0.02715126  0.79546666     0.28600
H3042       H  0.98630324  0.51489563  0.83254170     0.28600
H3043       H  0.94285334  0.93649188  0.80323286     0.19200
H3044       H  0.87302412  0.53450898  0.81826881     0.19200
C3045       C  0.90181383  0.78295725  0.79312302    -0.06700
C3046       C  0.87917350  0.75724073  0.79690391    -0.17800
C3047       C  0.88574355  0.73131188  0.81027315     0.10500
C3048       C  0.91578203  0.73096182  0.82001536    -0.06600
C3049       C  0.93856539  0.75634822  0.81595313    -0.17800
C3050       C  0.93210646  0.78202185  0.80254215     0.10600
S3051       S  0.85440386  0.70036362  0.81447625    -0.32800
S3052       S  0.96353429  0.81275468  0.79816418    -0.32800
H3053       H  0.95501044  0.81961780  0.77877410     0.28600
H3054       H  0.86619645  0.68705329  0.83200079     0.28600
H3055       H  0.85595512  0.75777894  0.78961615     0.19200
H3056       H  0.96182421  0.75599784  0.82321400     0.19200
C3057       C  0.65932747  0.76594768  0.04743475    -0.06700
C3058       C  0.64881634  0.79943511  0.04453932    -0.17800
C3059       C  0.62251036  0.81295715  0.05476342     0.10500
C3060       C  0.60499766  0.79210435  0.06778902    -0.06600
C3061       C  0.61645402  0.75893199  0.07126706    -0.17800
C3062       C  0.64346220  0.74569016  0.06135139     0.10600
S3063       S  0.61347926  0.85727626  0.05069671    -0.32800
S3064       S  0.65520700  0.70237120  0.06656331    -0.32800
H3065       H  0.68492524  0.70178076  0.05680714     0.28600
H3066       H  0.60752629  0.86479376  0.07046439     0.28600
H3067       H  0.66127920  0.81522009  0.03410544     0.19200
H3068       H  0.60368793  0.74273281  0.08132797     0.19200
C3069       C  0.83017763  0.75987563  0.04562563    -0.06700
C3070       C  0.83631225  0.74780952  0.06451231    -0.17800
C3071       C  0.86322313  0.75926535  0.07532923     0.10500
C3072       C  0.88550258  0.78193368  0.06671891    -0.06600
C3073       C  0.87909050  0.79350890  0.04777811    -0.17800
C3074       C  0.85158052  0.78375678  0.03753430     0.10600
S3075       S  0.86675869  0.74536447  0.10013056    -0.32800
S3076       S  0.84494854  0.80352131  0.01423918    -0.32800
H3077       H  0.81114540  0.80514341  0.01587143     0.28600
H3078       H  0.87300588  0.77827189  0.10757742     0.28600
H3079       H  0.81973634  0.72987972  0.07097110     0.19200
H3080       H  0.89534419  0.81118372  0.04082317     0.19200
C3081       C  0.65696851  0.72734169  0.95041225    -0.06700
C3082       C  0.65591781  0.69956677  0.93733166    -0.17800
C3083       C  0.62907128  0.69418379  0.92533553     0.10500
C3084       C  0.60220761  0.71619844  0.92698648    -0.06600
C3085       C  0.60415894  0.74529993  0.93888457    -0.17800
C3086       C  0.63155150  0.75153138  0.95028198     0.10600
S3087       S  0.62988378  0.65811873  0.90877351    -0.32800
S3088       S  0.63192485  0.78983022  0.96507985    -0.32800
H3089       H  0.66568422  0.79341420  0.96537955     0.28600
H3090       H  0.60630931  0.67045204  0.89586316     0.28600
H3091       H  0.67564410  0.68136139  0.93694096     0.19200
H3092       H  0.58358767  0.76233580  0.94007291     0.19200
C3093       C  0.88034082  0.70864080  0.92688683    -0.06700
C3094       C  0.87635511  0.74012232  0.93637566    -0.17800
C3095       C  0.84906311  0.74663820  0.94779689     0.10500
C3096       C  0.82565102  0.72086428  0.95002003    -0.06600
C3097       C  0.82846126  0.69042125  0.93926892    -0.17800
C3098       C  0.85537584  0.68426796  0.92748972     0.10600
S3099       S  0.84644359  0.78738745  0.96012474    -0.32800
S3100       S  0.85704625  0.64451386  0.91401179    -0.32800
H3101       H  0.87825663  0.65584903  0.89950049     0.28600
H3102       H  0.81257593  0.78851563  0.96118685     0.28600
H3103       H  0.89545148  0.75891226  0.93584559     0.19200
H3104       H  0.81016420  0.67090374  0.94061830     0.19200
C3105       C  0.59008453  0.95480007  0.06107158    -0.06700
C3106       C  0.61286165  0.97461315  0.07127495    -0.17800
C3107       C  0.64160943  0.98517085  0.06235306     0.10500
C3108       C  0.64834979  0.97458083  0.04299448    -0.06600
C3109       C  0.62540885  0.95517538  0.03281574    -0.17800
C3110       C  0.59613700  0.94625983  0.04129102     0.10600
S3111       S  0.67012724  0.50937299  0.07684048    -0.32800
S3112       S  0.56705842  0.92565719  0.02553381    -0.32800
H3113       H  0.54039616  0.94354803  0.03323800     0.28600
H3114       H  0.68256933  0.52745616  0.06097917     0.28600
H3115       H  0.60985240  0.47934244  0.08673739     0.19200
H3116       H  0.62995918  0.94788033  0.01777914     0.19200
C3117       C  0.87390938  0.93667463  0.06869085    -0.06700
C3118       C  0.86277601  0.91546672  0.05340207    -0.17800
C3119       C  0.83458485  0.92286116  0.04318157     0.10500
C3120       C  0.81693423  0.95244499  0.04801432    -0.06600
C3121       C  0.82616177  0.97215685  0.06425808    -0.17800
C3122       C  0.85410016  0.96424581  0.07488982     0.10600
S3123       S  0.82383829  0.89510666  0.02305670    -0.32800
S3124       S  0.86555386  0.49498958  0.09457243    -0.32800
H3125       H  0.87029278  0.46786243  0.10752336     0.28600
H3126       H  0.79065775  0.90262374  0.02313002     0.28600
H3127       H  0.87670420  0.89342685  0.04874777     0.19200
H3128       H  0.81472253  0.49810286  0.06688561     0.19200
C3129       C  0.66171742  0.54239454  0.95374758    -0.06700
C3130       C  0.64388487  0.51709788  0.94402298    -0.17800
C3131       C  0.61539430  0.52504244  0.93409658     0.10500
C3132       C  0.60468280  0.55926991  0.93351334    -0.06600
C3133       C  0.62351797  0.58474688  0.94252832    -0.17800
C3134       C  0.65195184  0.57678051  0.95249278     0.10600
S3135       S  0.59239005  0.48992867  0.92431033    -0.32800
S3136       S  0.67314395  0.61127880  0.96450942    -0.32800
H3137       H  0.70318634  0.59488241  0.96607959     0.28600
H3138       H  0.56318502  0.50091821  0.93278521     0.28600
H3139       H  0.65112967  0.49063151  0.94526999     0.19200
H3140       H  0.61566013  0.61110185  0.94222084     0.19200
C3141       C  0.88564828  0.55142628  0.93718523    -0.06700
C3142       C  0.87406764  0.51836909  0.93315935    -0.17800
C3143       C  0.84655690  0.50554149  0.94250028     0.10500
C3144       C  0.82919232  0.52672464  0.95558936    -0.06600
C3145       C  0.83995101  0.55996944  0.95912765    -0.17800
C3146       C  0.86833029  0.57209576  0.95079643     0.10600
S3147       S  0.83616702  0.46154390  0.93780334    -0.32800
S3148       S  0.88138868  0.61343014  0.95930510    -0.32800
H3149       H  0.90979760  0.60032977  0.96768533     0.28600
H3150       H  0.80457379  0.46237548  0.94510223     0.28600
H3151       H  0.88710486  0.50190872  0.92310581     0.19200
H3152       H  0.82710489  0.57594289  0.96955075     0.19200
C3153       C  0.65834183  0.52078746  0.67990884    -0.06700
C3154       C  0.68457873  0.50075203  0.68593077    -0.17800
C3155       C  0.67627845  0.97181783  0.69737062     0.10500
C3156       C  0.64541548  0.96753185  0.70559625    -0.06600
C3157       C  0.62006788  0.98927046  0.70004933    -0.17800
C3158       C  0.62487978  0.01484208  0.68623509     0.10600
S3159       S  0.71048212  0.94558185  0.70370064    -0.32800
S3160       S  0.59065758  0.04072195  0.67951653    -0.32800
H3161       H  0.60800379  0.56780087  0.67417400     0.28600
H3162       H  0.70162357  0.94062632  0.72321650     0.28600
H3163       H  0.70837210  0.50536314  0.67996141     0.19200
H3164       H  0.59631242  0.98590642  0.70631883     0.19200
C3165       C  0.64568318  0.79007008  0.70201845    -0.06700
C3166       C  0.67695419  0.78864878  0.69429209    -0.17800
C3167       C  0.68587152  0.76308537  0.68098101     0.10500
C3168       C  0.66327259  0.73784323  0.67540735    -0.06600
C3169       C  0.63195668  0.73926189  0.68306631    -0.17800
C3170       C  0.62275564  0.76539945  0.69604746     0.10600
S3171       S  0.72698573  0.76263612  0.67250455    -0.32800
S3172       S  0.58160893  0.76573281  0.70459272    -0.32800
H3173       H  0.57950786  0.80110124  0.70788205     0.28600
H3174       H  0.71814957  0.76931736  0.65312429     0.28600
H3175       H  0.69469213  0.80732349  0.69892188     0.19200
H3176       H  0.61448221  0.72009846  0.67875540     0.19200
C3177       C  0.83672184  0.96199873  0.70251771    -0.06700
C3178       C  0.81275234  0.98430062  0.70945584    -0.17800
C3179       C  0.80098801  0.01083770  0.69797029     0.10500
C3180       C  0.81289488  0.51495582  0.67966145    -0.06600
C3181       C  0.83785527  0.49321397  0.67330625    -0.17800
C3182       C  0.84938285  0.96657696  0.68366896     0.10600
S3183       S  0.76883192  0.03648659  0.70797194    -0.32800
S3184       S  0.88337430  0.44114460  0.67716876    -0.32800
H3185       H  0.88613120  0.95629251  0.65692800     0.28600
H3186       H  0.78543767  0.56575221  0.70832379     0.28600
H3187       H  0.80293240  0.98076682  0.72392092     0.19200
H3188       H  0.84784236  0.49659298  0.65888932     0.19200
C3189       C  0.81923484  0.72798779  0.67666520    -0.06700
C3190       C  0.83972920  0.75270564  0.66869891    -0.17800
C3191       C  0.85224779  0.77946342  0.68008833     0.10500
C3192       C  0.84308264  0.78262897  0.69984082    -0.06600
C3193       C  0.82280896  0.75790806  0.70786047    -0.17800
C3194       C  0.81096069  0.73055768  0.69667147     0.10600
S3195       S  0.87997914  0.80829653  0.66856817    -0.32800
S3196       S  0.78429251  0.70050406  0.70823327    -0.32800
H3197       H  0.77989423  0.71866909  0.72582238     0.28600
H3198       H  0.89665433  0.81803750  0.68556986     0.28600
H3199       H  0.84631839  0.75097707  0.65344115     0.19200
H3200       H  0.81612500  0.76032084  0.72306167     0.19200
C3201       C  0.65591589  0.98250817  0.32039807    -0.06700
C3202       C  0.63230420  0.00569869  0.32696289    -0.17800
C3203       C  0.62218484  0.53290779  0.31503869     0.10500
C3204       C  0.63481608  0.53590550  0.29604761    -0.06600
C3205       C  0.65792137  0.51232176  0.28943434    -0.17800
C3206       C  0.66833365  0.98586062  0.30131527     0.10600
S3207       S  0.59209524  0.56165459  0.32484637    -0.32800
S3208       S  0.70101212  0.96023674  0.29187519    -0.32800
H3209       H  0.72054193  0.96496513  0.30848580     0.28600
H3210       H  0.57803476  0.57036744  0.30693079     0.28600
H3211       H  0.62289558  0.00361458  0.34162883     0.19200
H3212       H  0.66801968  0.51492908  0.27496502     0.19200
C3213       C  0.64936867  0.71399904  0.29772429    -0.06700
C3214       C  0.63330455  0.71746191  0.31563009    -0.17800
C3215       C  0.64060005  0.74417536  0.32862927     0.10500
C3216       C  0.66449202  0.76819216  0.32370404    -0.06600
C3217       C  0.68078866  0.76451912  0.30585492    -0.17800
C3218       C  0.67396483  0.73743820  0.29304497     0.10600
S3219       S  0.61782931  0.74686224  0.35096324    -0.32800
S3220       S  0.69770404  0.73395437  0.27108419    -0.32800
H3221       H  0.69536649  0.69832912  0.26913311     0.28600
H3222       H  0.61806616  0.78265183  0.35240864     0.28600
H3223       H  0.61429491  0.69972250  0.31925855     0.19200
H3224       H  0.69977192  0.78222605  0.30212325     0.19200
C3225       C  0.81959126  0.98392063  0.32111994    -0.06700
C3226       C  0.83537125  0.51236064  0.32806465    -0.17800
C3227       C  0.84566004  0.53897297  0.31619196     0.10500
C3228       C  0.83664094  0.53915505  0.29630999    -0.06600
C3229       C  0.81916819  0.51138115  0.28871237    -0.17800
C3230       C  0.81202554  0.98287814  0.30097630     0.10600
S3231       S  0.87064446  0.57139179  0.32734073    -0.32800
S3232       S  0.79057799  0.94840230  0.28932063    -0.32800
H3233       H  0.81350979  0.92386083  0.29498445     0.28600
H3234       H  0.88875602  0.57850012  0.31057917     0.28600
H3235       H  0.84131818  0.51326537  0.34344581     0.19200
H3236       H  0.81262318  0.51094036  0.27341356     0.19200
C3237       C  0.84003350  0.71756345  0.29883737    -0.06700
C3238       C  0.81865500  0.74235048  0.29187191    -0.17800
C3239       C  0.80778146  0.76917490  0.30380068     0.10500
C3240       C  0.81798570  0.77135620  0.32352947    -0.06600
C3241       C  0.83925370  0.74627209  0.33051812    -0.17800
C3242       C  0.85083593  0.71991104  0.31835190     0.10600
S3243       S  0.77917427  0.79816293  0.29316412    -0.32800
S3244       S  0.87953713  0.69035926  0.32853129    -0.32800
H3245       H  0.89565871  0.68272199  0.31100573     0.28600
H3246       H  0.80086447  0.82568832  0.29400387     0.28600
H3247       H  0.81019987  0.74064112  0.27693798     0.19200
H3248       H  0.84730238  0.74749409  0.34553933     0.19200
C3249       C  0.57192657  0.71594352  0.54598959    -0.06700
C3250       C  0.58837234  0.74157424  0.55644956    -0.17800
C3251       C  0.61700773  0.73438331  0.56666443     0.10500
C3252       C  0.62953890  0.70076152  0.56638079    -0.06600
C3253       C  0.61198127  0.67513825  0.55658293    -0.17800
C3254       C  0.58326052  0.68211434  0.54680221     0.10600
S3255       S  0.63739444  0.76954782  0.57836585    -0.32800
S3256       S  0.56367544  0.64704623  0.53435583    -0.32800
H3257       H  0.53224553  0.66042749  0.53521395     0.28600
H3258       H  0.66798641  0.76073928  0.57097600     0.28600
H3259       H  0.57975688  0.76764995  0.55579131     0.19200
H3260       H  0.62101770  0.64921936  0.55614059     0.19200
C3261       C  0.90449052  0.71213342  0.54658415    -0.06700
C3262       C  0.89131592  0.73435208  0.56062739    -0.17800
C3263       C  0.86363596  0.72551752  0.57115119     0.10500
C3264       C  0.84870643  0.69352658  0.56762984    -0.06600
C3265       C  0.86310538  0.67084267  0.55415221    -0.17800
C3266       C  0.89069778  0.67966006  0.54375563     0.10600
S3267       S  0.84801692  0.75695249  0.58798337    -0.32800
S3268       S  0.90561096  0.64959678  0.52578996    -0.32800
H3269       H  0.93824480  0.65881197  0.52765193     0.28600
H3270       H  0.81742029  0.75776092  0.57906848     0.28600
H3271       H  0.90187071  0.75936372  0.56277231     0.19200
H3272       H  0.85253213  0.64603368  0.55135358     0.19200
C3273       C  0.63223141  0.80368089  0.43583677    -0.06700
C3274       C  0.61167958  0.78045323  0.42620529    -0.17800
C3275       C  0.58344117  0.76837529  0.43512798     0.10500
C3276       C  0.57500491  0.78045979  0.45394315    -0.06600
C3277       C  0.59504303  0.80415219  0.46330486    -0.17800
C3278       C  0.62367668  0.81514399  0.45485719     0.10600
S3279       S  0.55963412  0.73751053  0.42180022    -0.32800
S3280       S  0.64868324  0.84219525  0.46996717    -0.32800
H3281       H  0.67694000  0.82315339  0.46637120     0.28600
H3282       H  0.54505160  0.72220331  0.43793496     0.28600
H3283       H  0.61771092  0.77145416  0.41167418     0.19200
H3284       H  0.58894923  0.81303878  0.47786633     0.19200
C3285       C  0.90347285  0.78647442  0.45599990    -0.06700
C3286       C  0.88306876  0.81052360  0.46486912    -0.17800
C3287       C  0.85382902  0.81996769  0.45638844     0.10500
C3288       C  0.84561155  0.80764963  0.43749127    -0.06600
C3289       C  0.86666623  0.78430595  0.42827722    -0.17800
C3290       C  0.89494741  0.77286519  0.43753901     0.10600
S3291       S  0.82718924  0.84520643  0.47152803    -0.32800
S3292       S  0.91836340  0.74020586  0.42533277    -0.32800
H3293       H  0.93082411  0.72488789  0.44215792     0.28600
H3294       H  0.80011875  0.82461010  0.46762825     0.28600
H3295       H  0.88892193  0.82012667  0.47932271     0.19200
H3296       H  0.86072752  0.77427011  0.41395080     0.19200
C3297       C  0.62339000  0.54103448  0.56968341    -0.06700
C3298       C  0.62258233  0.50992320  0.55946955    -0.17800
C3299       C  0.59571572  0.50072762  0.54817664     0.10500
C3300       C  0.56930771  0.52355638  0.54665436    -0.06600
C3301       C  0.56944435  0.55377102  0.55779881    -0.17800
C3302       C  0.59596841  0.56249816  0.56946538     0.10600
S3303       S  0.59517841  0.96214269  0.53604151    -0.32800
S3304       S  0.59350517  0.60154075  0.58352398    -0.32800
H3305       H  0.61617228  0.59244673  0.59781888     0.28600
H3306       H  0.56152258  0.95800005  0.53498506     0.28600
H3307       H  0.64354309  0.49332570  0.55963826     0.19200
H3308       H  0.54916588  0.57121224  0.55689839     0.19200
C3309       C  0.89964887  0.52362706  0.54902625    -0.06700
C3310       C  0.87686899  0.49727166  0.55043600    -0.17800
C3311       C  0.84877878  0.50130375  0.56163043     0.10500
C3312       C  0.84296923  0.53259391  0.57137542    -0.06600
C3313       C  0.86683629  0.55788007  0.57111746    -0.17800
C3314       C  0.89506375  0.55375829  0.56018175     0.10600
S3315       S  0.81956917  0.96849206  0.56025435    -0.32800
S3316       S  0.92345084  0.58851216  0.56058952    -0.32800
H3317       H  0.93477207  0.58409310  0.54145194     0.28600
H3318       H  0.80968169  0.47215210  0.58062538     0.28600
H3319       H  0.88004207  0.97549406  0.54114400     0.19200
H3320       H  0.86256539  0.58195972  0.57860886     0.19200
C3321       C  0.56991912  0.99211040  0.44860144    -0.06700
C3322       C  0.57579349  0.95694380  0.44753855    -0.17800
C3323       C  0.60190101  0.94362113  0.43699320     0.10500
C3324       C  0.62390678  0.96593715  0.42788300    -0.06600
C3325       C  0.61695655  0.00104865  0.42798064    -0.17800
C3326       C  0.59001652  0.01429628  0.43800546     0.10600
S3327       S  0.60507102  0.89784414  0.43534278    -0.32800
S3328       S  0.58193821  0.55817067  0.43780522    -0.32800
H3329       H  0.54873464  0.55637686  0.44179281     0.28600
H3330       H  0.61781025  0.89719589  0.41635333     0.28600
H3331       H  0.55990913  0.93967413  0.45513347     0.19200
H3332       H  0.63343548  0.51889698  0.42137767     0.19200
C3333       C  0.84711349  0.96955158  0.42914796    -0.06700
C3334       C  0.85446353  0.00452061  0.42944495    -0.17800
C3335       C  0.88201997  0.01683869  0.43919611     0.10500
C3336       C  0.90206386  0.99386054  0.44939605    -0.06600
C3337       C  0.89592302  0.95886844  0.44791716    -0.17800
C3338       C  0.86924030  0.94642022  0.43757502     0.10600
S3339       S  0.88744897  0.56183958  0.44108575    -0.32800
S3340       S  0.86464412  0.90087309  0.43461846    -0.32800
H3341       H  0.89091214  0.89100195  0.44629892     0.28600
H3342       H  0.92054170  0.56082888  0.44555643     0.28600
H3343       H  0.83814869  0.02243616  0.42262078     0.19200
H3344       H  0.91197295  0.94129741  0.45522552     0.19200
loop_ 
_geom_bond_atom_site_label_1 
_geom_bond_atom_site_label_2 
_geom_bond_distance 
_geom_bond_site_symmetry_2 
_ccdc_geom_bond_type 
N1           H33   1.037       .  S
N1            C5   1.354       .  A
N1          C842   1.355       .  A
N2           C10   1.354   1_655  A
N2         C1681   1.353       .  A
N3           H34   1.040       .  S
N3            C8   1.353       .  A
N3          C843   1.354       .  A
N4           C12   1.351   1_655  A
N4         C1683   1.352       .  A
C5           C13   1.388       .  A
C5           C21   1.418       .  A
C6          N837   1.356       .  A
C6           C22   1.420       .  A
C6           C14   1.387       .  A
C7          N839   1.355       .  A
C7           C15   1.386       .  A
C7           C24   1.416       .  A
C8           C23   1.420       .  A
C8           C16   1.389       .  A
C9         N1674   1.352       .  A
C9           C21   1.417       .  A
C9           C17   1.387       .  A
C10          C24   1.415       .  A
C10          C18   1.385       .  A
C11        N1676   1.352       .  A
C11          C19   1.385       .  A
C11          C22   1.415       .  A
C12          C20   1.386       .  A
C12          C23   1.414       .  A
C13         C850   1.374       .  A
C13          H25   1.081       .  S
C14         C849   1.374       .  A
C14          H26   1.082       .  S
C15         C852   1.374       .  A
C15          H27   1.081       .  S
C16         C851   1.375       .  A
C16          H28   1.082       .  S
C17        C1690   1.372       .  A
C17          H29   1.082       .  S
C18        C1689   1.372   1_455  A
C18          H30   1.082       .  S
C19        C1692   1.376       .  A
C19          H31   1.082       .  S
C20        C1691   1.375   1_455  A
C20          H32   1.082       .  S
C21         C828   1.487       .  S
C22         C801   1.495       .  S
C23         C792   1.490       .  S
C24         C813   1.493       .  S
N35          H67   1.038       .  S
N35          C40   1.353       .  A
N35          C39   1.354       .  A
N36          C44   1.349       .  A
N36        C1715   1.350       .  A
N37          H68   1.040       .  S
N37          C42   1.353       .  A
N37          C41   1.354       .  A
N38          C46   1.351       .  A
N38        C1717   1.351       .  A
C39          C47   1.389       .  A
C39          C55   1.418       .  A
C40          C56   1.416       .  A
C40          C48   1.386       .  A
C41          C49   1.389       .  A
C41          C58   1.420       .  A
C42          C57   1.417       .  A
C42          C50   1.386       .  A
C43        N1708   1.350   1_455  A
C43          C55   1.412       .  A
C43          C51   1.386       .  A
C44          C58   1.413       .  A
C44          C52   1.387       .  A
C45        N1710   1.351   1_455  A
C45          C53   1.386       .  A
C45          C56   1.413       .  A
C46          C54   1.386       .  A
C46          C57   1.413       .  A
C47          C48   1.372       .  A
C47          H59   1.082       .  S
C48          H60   1.083       .  S
C49          C50   1.370       .  A
C49          H61   1.081       .  S
C50          H62   1.082       .  S
C51        C1724   1.375   1_455  A
C51          H63   1.082       .  S
C52        C1723   1.375       .  A
C52          H64   1.082       .  S
C53        C1726   1.378   1_455  A
C53          H65   1.082       .  S
C54        C1725   1.378       .  A
C54          H66   1.082       .  S
C55         C741   1.486       .  S
C56         C768   1.490       .  S
C57         C777   1.490       .  S
C58         C753   1.486       .  S
N69          N70   1.327       .  A
N69          N75   1.314       .  A
N69         Mn98   2.230       .  S
N70          C77   1.361       .  A
N71          N73   1.314       .  A
N71          N72   1.313       .  A
N71         Mn87   2.169       .  S
N72          C78   1.346       .  A
N73          N74   1.328       .  A
N73         Mn98   2.234       .  S
N74          C78   1.362       .  A
N75          N76   1.315       .  A
N75         Mn87   2.181       .  S
N76          C77   1.348       .  A
C77         C780   1.491       .  S
C78         C765   1.490       .  S
N79          N85   1.314       .  A
N79          N80   1.327       .  A
N79        Mn109   2.222       .  S
N80          C88   1.359       .  A
N81          N82   1.315       .  A
N81          N83   1.312       .  A
N81         Mn87   2.176       .  S
N82          C89   1.349       .  A
N83          N84   1.325       .  A
N83        Mn109   2.212       .  S
N84          C89   1.357       .  A
N85          N86   1.316       .  A
N85         Mn87   2.186       .  S
N86          C88   1.349       .  A
Mn87       Cl111   2.531       .  S
C88         C816   1.485       .  S
C89         C825   1.478       .  S
N90          N91   1.321       .  A
N90          N96   1.320       .  A
N90         Mn98   2.211       .  S
N91          C99   1.353       .  A
N92          N94   1.319       .  A
N92          N93   1.321       .  A
N92        Mn110   2.215       .  S
N93         C100   1.353       .  A
N94          N95   1.323       .  A
N94         Mn98   2.216       .  S
N95         C100   1.355       .  A
N96          N97   1.321       .  A
N96        Mn110   2.212       .  S
N97          C99   1.353       .  A
Mn98       Cl111   2.563       .  S
C99         C708   1.480       .  S
C100        C732   1.493       .  S
N101        N102   1.318       .  A
N101        N107   1.316       .  A
N101       Mn109   2.195       .  S
N102        C112   1.352       .  A
N103        N104   1.324       .  A
N103        N105   1.318       .  A
N103       Mn110   2.228       .  S
N104        C113   1.357       .  A
N105        N106   1.319       .  A
N105       Mn109   2.196       .  S
N106        C113   1.350       .  A
N107        N108   1.319       .  A
N107       Mn110   2.208       .  S
N108        C112   1.354       .  A
Mn109      Cl111   2.560       .  S
Mn110      Cl111   2.537       .  S
C112        C717   1.481       .  S
C113        C693   1.484       .  S
N114        N115   1.323       .  A
N114        N120   1.314       .  A
N114       Mn143   2.217       .  S
N115        C122   1.357       .  A
N116        N118   1.313       .  A
N116        N117   1.314       .  A
N116       Mn132   2.172       .  S
N117        C123   1.348       .  A
N118        N119   1.326       .  A
N118       Mn143   2.219       .  S
N119        C123   1.359       .  A
N120        N121   1.316       .  A
N120       Mn132   2.181       .  S
N121        C122   1.351       .  A
C122        C756   1.487       .  S
C123        C744   1.487       .  S
N124        N130   1.314       .  A
N124        N125   1.324       .  A
N124       Mn154   2.214       .  S
N125        C133   1.354       .  A
N126        N127   1.316       .  A
N126        N128   1.313       .  A
N126       Mn132   2.186       .  S
N127        C134   1.349       .  A
N128        N129   1.326       .  A
N128       Mn154   2.218       .  S
N129        C134   1.358       .  A
N130        N131   1.318       .  A
N130       Mn132   2.187       .  S
N131        C133   1.349       .  A
Mn132      Cl156   2.541       .  S
C133        C789   1.471       .  S
C134        C804   1.477       .  S
N135        N136   1.319       .  A
N135        N141   1.318       .  A
N135       Mn143   2.196       .  S
N136        C144   1.351       .  A
N137        N139   1.318       .  A
N137        N138   1.322       .  A
N137       Mn155   2.219       .  S
N138        C145   1.355       .  A
N139        N140   1.322       .  A
N139       Mn143   2.206       .  S
N140        C145   1.354       .  A
N141        N142   1.322       .  A
N141       Mn155   2.216       .  S
N142        C144   1.354       .  A
Mn143      Cl156   2.549       .  S
C144        C660   1.474       .  S
C145        C681   1.491       .  S
N146        N147   1.320       .  A
N146        N152   1.318       .  A
N146       Mn154   2.206       .  S
N147        C157   1.354       .  A
N148        N149   1.322       .  A
N148        N150   1.316       .  A
N148       Mn155   2.218       .  S
N149        C158   1.357       .  A
N150        N151   1.318       .  A
N150       Mn154   2.194       .  S
N151        C158   1.351       .  A
N152        N153   1.320       .  A
N152       Mn155   2.213       .  S
N153        C157   1.354       .  A
Mn154      Cl156   2.551       .  S
Mn155      Cl156   2.543       .  S
C157        C672   1.485       .  S
C158        C645   1.472       .  S
N159        H191   1.041       .  S
N159        C163   1.354   1_556  A
N159       C1000   1.352       .  A
N160        C167   1.351       .  A
N160        C168   1.347       .  A
N161        H192   1.042       .  S
N161        C165   1.352   1_556  A
N161       C1002   1.355       .  A
N162        C169   1.349       .  A
N162        C170   1.350       .  A
C163        C171   1.385       .  A
C163        C179   1.414       .  A
C164        N995   1.352       .  A
C164        C180   1.418       .  A
C164        C172   1.390       .  A
C165        C173   1.387       .  A
C165        C182   1.415       .  A
C166        N997   1.355   1_545  A
C166        C181   1.418       .  A
C166        C174   1.388       .  A
C167        C179   1.410       .  A
C167        C175   1.385       .  A
C168        C182   1.408       .  A
C168        C176   1.387       .  A
C169        C177   1.386       .  A
C169        C180   1.412       .  A
C170        C178   1.386       .  A
C170        C181   1.412       .  A
C171       C1008   1.371   1_554  A
C171        H183   1.082       .  S
C172       C1007   1.371   1_556  A
C172        H184   1.081       .  S
C173       C1010   1.371   1_554  A
C173        H185   1.082       .  S
C174       C1009   1.372   1_546  A
C174        H186   1.082       .  S
C175        C176   1.376       .  A
C175        H187   1.082       .  S
C176        H188   1.082       .  S
C177        C178   1.377       .  A
C177        H189   1.082       .  S
C178        H190   1.082       .  S
C179        C600   1.492       .  S
C180        C621   1.483       .  S
C181        C636   1.489       .  S
C182        C612   1.479       .  S
N193        H225   1.037       .  S
N193        C198   1.354       .  A
N193        C197   1.356   1_554  A
N194        C201   1.350       .  A
N194        C202   1.350       .  A
N195        H226   1.038       .  S
N195        C200   1.353       .  A
N195        C199   1.352   1_554  A
N196        C203   1.352       .  A
N196        C204   1.353       .  A
C197        C205   1.388       .  A
C197        C213   1.421       .  A
C198        C214   1.416       .  A
C198        C206   1.386       .  A
C199        C207   1.388       .  A
C199        C216   1.415       .  A
C200        C215   1.413       .  A
C200        C208   1.386       .  A
C201        C213   1.413       .  A
C201        C209   1.386       .  A
C202        C216   1.412       .  A
C202        C210   1.386       .  A
C203        C211   1.386       .  A
C203        C214   1.415       .  A
C204        C212   1.385       .  A
C204        C215   1.415       .  A
C205        C206   1.376   1_556  A
C205        H217   1.082       .  S
C206        H218   1.082       .  S
C207        C208   1.375   1_556  A
C207        H219   1.082       .  S
C208        H220   1.082       .  S
C209        C210   1.374       .  A
C209        H221   1.082       .  S
C210        H222   1.082       .  S
C211        C212   1.376       .  A
C211        H223   1.082       .  S
C212        H224   1.082       .  S
C213        C573   1.496       .  S
C214        C549   1.489       .  S
C215        C561   1.491       .  S
C216        C588   1.486       .  S
N227        N228   1.323       .  A
N227        N233   1.313       .  A
N227       Mn256   2.204       .  S
N228        C235   1.354       .  A
N229        N231   1.313       .  A
N229       N1902   1.316       .  A
N229       Mn245   2.181       .  S
N230        C236   1.348       .  A
N230       N1901   1.317       .  A
N231       N1904   1.325       .  A
N231       Mn256   2.208       .  S
N232        C236   1.356       .  A
N232       N1903   1.326       .  A
N233        N234   1.316       .  A
N233       Mn245   2.180       .  S
N234        C235   1.348       .  A
C235        C585   1.465       .  S
C236        C576   1.473       .  S
N237        N243   1.313       .  A
N237       N1910   1.322       .  A
N237       Mn267   2.215       .  S
N238        C246   1.356       .  A
N238       N1909   1.322       .  A
N239        N240   1.314       .  A
N239        N241   1.314       .  A
N239       Mn245   2.180       .  S
N240        C247   1.347       .  A
N241        N242   1.327       .  A
N241       Mn267   2.231       .  S
N242        C247   1.362       .  A
N243       N1916   1.317       .  A
N243       Mn245   2.171       .  S
N244        C246   1.350       .  A
N244       N1915   1.317       .  A
Mn245      Cl269   2.536       .  S
C246        C624   1.483       .  S
C247        C633   1.494       .  S
N248        N249   1.318       .  A
N248        N254   1.317       .  A
N248      Mn1928   2.192   1_455  S
N249        C257   1.350       .  A
N250        N252   1.317       .  A
N250        N251   1.322       .  A
N250       Mn268   2.218       .  S
N251        C258   1.356       .  A
N252        N253   1.316       .  A
N252       Mn256   2.193       .  S
N253        C258   1.351       .  A
N254        N255   1.322       .  A
N254      Mn1940   2.216   1_455  S
N255        C257   1.355       .  A
Mn256      N1920   2.187       .  S
Mn256      Cl269   2.550       .  S
C257        C513   1.478       .  S
C258        C540   1.471       .  S
N259        N260   1.322       .  A
N259        N265   1.320       .  A
N259       Mn267   2.210       .  S
N260        C270   1.353       .  A
N261        N262   1.320       .  A
N261        N263   1.317       .  A
N261      Mn1940   2.210   1_455  S
N262        C271   1.354       .  A
N263        N264   1.320       .  A
N263      Mn1939   2.200   1_455  S
N264        C271   1.352       .  A
N265        N266   1.323       .  A
N265       Mn268   2.225       .  S
N266        C270   1.354       .  A
Mn267      N1935   2.200       .  S
Mn267      Cl269   2.552       .  S
Mn268      N1926   2.216       .  S
Mn268      N1933   2.212       .  S
Mn268      Cl269   2.539       .  S
C270        C528   1.485       .  S
C271        C501   1.481       .  S
N272        H304   1.040       .  S
N272        C277   1.352       .  A
N272        C276   1.352       .  A
N273        C280   1.352       .  A
N273        C281   1.350       .  A
N274        H305   1.041       .  S
N274        C279   1.353       .  A
N274        C278   1.353       .  A
N275        C282   1.350       .  A
N275        C283   1.349       .  A
C276        C284   1.387       .  A
C276        C292   1.415       .  A
C277        C293   1.414       .  A
C277        C285   1.386       .  A
C278        C286   1.387       .  A
C278        C295   1.416       .  A
C279        C294   1.415       .  A
C279        C287   1.387       .  A
C280        C292   1.411       .  A
C280        C288   1.385       .  A
C281        C295   1.414       .  A
C281        C289   1.387       .  A
C282        C290   1.386       .  A
C282        C293   1.410       .  A
C283        C291   1.386       .  A
C283        C294   1.407       .  A
C284        C285   1.379       .  A
C284        H296   1.082       .  S
C285        H297   1.082       .  S
C286        C287   1.380       .  A
C286        H298   1.082       .  S
C287        H299   1.082       .  S
C288        C289   1.372       .  A
C288       H1136   1.082       .  S
C289       H1137   1.082       .  S
C290        C291   1.372       .  A
C290        H302   1.082       .  S
C291        H303   1.082       .  S
C292        C648   1.489       .  S
C293        C657   1.487       .  S
C294        C516   1.485       .  S
C295        C504   1.491       .  S
H300       C1124   1.082   1_545  S
H301       C1125   1.082       .  S
N306        H338   1.042       .  S
N306        C311   1.354       .  A
N306        C310   1.352       .  A
N307        C314   1.351       .  A
N307        C315   1.353       .  A
N308        H339   1.041       .  S
N308        C313   1.352       .  A
N308        C312   1.353       .  A
N309        C316   1.352       .  A
N309        C317   1.350       .  A
C310        C318   1.387       .  A
C310        C326   1.415       .  A
C311        C327   1.416       .  A
C311        C319   1.386       .  A
C312        C320   1.386       .  A
C312        C329   1.414       .  A
C313        C328   1.414       .  A
C313        C321   1.387       .  A
C314        C326   1.415       .  A
C314        C322   1.387       .  A
C315        C329   1.415       .  A
C315        C323   1.385       .  A
C316        C324   1.385       .  A
C316        C327   1.413       .  A
C317        C325   1.387       .  A
C317        C328   1.414       .  A
C318        C319   1.377       .  A
C318       H1166   1.082       .  S
C319       H1167   1.082       .  S
C320        C321   1.376       .  A
C320        H332   1.082       .  S
C321        H333   1.082       .  S
C322        C323   1.377       .  A
C322        H334   1.082       .  S
C323        H335   1.082       .  S
C324        C325   1.376       .  A
C324        H336   1.082       .  S
C325        H337   1.082       .  S
C326        C669   1.490       .  S
C327        C525   1.497       .  S
C328        C537   1.488       .  S
C329        C684   1.495       .  S
H330       C1154   1.082       .  S
H331       C1155   1.082       .  S
N340        H372   1.038       .  S
N340        C345   1.353       .  A
N340        C344   1.354       .  A
N341        C348   1.351       .  A
N341        C349   1.351       .  A
N342        H373   1.039       .  S
N342        C347   1.354       .  A
N342        C346   1.354       .  A
N343        C350   1.351       .  A
N343        C351   1.351       .  A
C344        C352   1.388       .  A
C344        C360   1.419       .  A
C345        C361   1.416       .  A
C345        C353   1.387       .  A
C346        C354   1.387       .  A
C346        C363   1.416       .  A
C347        C362   1.415       .  A
C347        C355   1.386       .  A
C348        C360   1.415       .  A
C348        C356   1.387       .  A
C349        C363   1.411       .  A
C349        C357   1.385       .  A
C350        C358   1.387       .  A
C350        C361   1.413       .  A
C351        C359   1.386       .  A
C351        C362   1.413       .  A
C352        C353   1.377       .  A
C352        H364   1.082       .  S
C353        H365   1.082       .  S
C354        C355   1.378       .  A
C354        H366   1.082       .  S
C355        H367   1.082       .  S
C356        C357   1.374       .  A
C356       H1204   1.082       .  S
C357       H1205   1.082       .  S
C358        C359   1.370       .  A
C358        H370   1.082       .  S
C359        H371   1.082       .  S
C360        C480   1.496       .  S
C361        C489   1.486       .  S
C362        C705   1.490       .  S
C363        C696   1.490       .  S
H368       C1192   1.082       .  S
H369       C1193   1.082       .  S
N374        H406   1.042       .  S
N374        C379   1.354       .  A
N374        C378   1.352       .  A
N375        C382   1.349       .  A
N375        C383   1.351       .  A
N376        H407   1.042       .  S
N376        C381   1.352       .  A
N376        C380   1.353       .  A
N377        C384   1.353       .  A
N377        C385   1.350       .  A
C378        C386   1.387       .  A
C378        C394   1.415       .  A
C379        C395   1.416       .  A
C379        C387   1.388       .  A
C380        C388   1.386       .  A
C380        C397   1.414       .  A
C381        C396   1.417       .  A
C381        C389   1.388       .  A
C382        C394   1.412       .  A
C382        C390   1.387       .  A
C383        C397   1.412       .  A
C383        C391   1.385       .  A
C384        C392   1.385       .  A
C384        C395   1.413       .  A
C385        C393   1.388       .  A
C385        C396   1.417       .  A
C386        C387   1.373       .  A
C386       H1234   1.082       .  S
C387       H1235   1.081       .  S
C388        C389   1.378       .  A
C388        H400   1.082       .  S
C389        H401   1.082       .  S
C390        C391   1.378       .  A
C390        H402   1.082       .  S
C391        H403   1.082       .  S
C392        C393   1.376       .  A
C392        H404   1.082       .  S
C393        H405   1.082       .  S
C394        C720   1.490       .  S
C395        C453   1.493       .  S
C396        C468   1.493       .  S
C397        C729   1.493       .  S
H398       C1222   1.082       .  S
H399       C1223   1.081       .  S
N408        N409   1.329       .  A
N408        N414   1.312       .  A
N408       Mn437   2.229       .  S
N409        C416   1.362       .  A
N410        N412   1.312       .  A
N410       N2083   1.316       .  A
N410       Mn426   2.180       .  S
N411        C417   1.352       .  A
N411       N2082   1.318       .  A
N412       N2085   1.325       .  A
N412       Mn437   2.219       .  S
N413        C417   1.358       .  A
N413       N2084   1.325       .  A
N414        N415   1.314       .  A
N414       Mn426   2.178       .  S
N415        C416   1.350       .  A
C416        C564   1.499       .  S
C417        C552   1.489       .  S
N418        N424   1.314       .  A
N418       N2091   1.326       .  A
N418       Mn448   2.222       .  S
N419        C427   1.360       .  A
N419       N2090   1.327       .  A
N420        N421   1.312       .  A
N420        N422   1.313       .  A
N420       Mn426   2.166       .  S
N421        C428   1.347       .  A
N422        N423   1.325       .  A
N422       Mn448   2.217       .  S
N423        C428   1.359       .  A
N424       N2097   1.314       .  A
N424       Mn426   2.173       .  S
N425        C427   1.347       .  A
N425       N2096   1.314       .  A
Mn426      Cl450   2.534       .  S
C427        C597   1.484       .  S
C428        C609   1.484       .  S
N429        N430   1.318       .  A
N429        N435   1.317       .  A
N429      Mn2109   2.193   1_455  S
N430        C438   1.350       .  A
N431        N433   1.319       .  A
N431        N432   1.323       .  A
N431       Mn449   2.226       .  S
N432        C439   1.356       .  A
N433        N434   1.318       .  A
N433       Mn437   2.194       .  S
N434        C439   1.350       .  A
N435        N436   1.321       .  A
N435      Mn2121   2.208   1_455  S
N436        C438   1.355       .  A
Mn437      N2101   2.193       .  S
Mn437      Cl450   2.552       .  S
C438        C492   1.471       .  S
C439        C465   1.476       .  S
N440        N441   1.323       .  A
N440        N446   1.318       .  A
N440       Mn448   2.215       .  S
N441        C451   1.354       .  A
N442        N443   1.322       .  A
N442        N444   1.319       .  A
N442      Mn2121   2.223   1_455  S
N443        C452   1.355       .  A
N444        N445   1.318       .  A
N444      Mn2120   2.191   1_455  S
N445        C452   1.350       .  A
N446        N447   1.322       .  A
N446       Mn449   2.218       .  S
N447        C451   1.354       .  A
Mn448      N2116   2.200       .  S
Mn448      Cl450   2.556       .  S
Mn449      N2107   2.211       .  S
Mn449      N2114   2.225       .  S
Mn449      Cl450   2.541       .  S
C451        C456   1.485       .  S
C452        C477   1.477       .  S
C453        C454   1.402       .  A
C453        C458   1.416       .  A
C454       C1291   1.398   1_545  A
C454        H463   1.084       .  S
C455        C456   1.415       .  A
C455       C1290   1.399       .  A
C455        S459   1.799       .  S
C456       C1293   1.404       .  A
C457        C458   1.405   1_565  A
C457       C1292   1.404       .  A
C457        H464   1.084       .  S
C458        S460   1.804       .  S
S459        H462   1.406       .  S
S460        H461   1.405       .  S
C465        C466   1.405       .  A
C465        C470   1.409       .  A
C466        C467   1.398       .  A
C466        H475   1.084       .  S
C467        C468   1.414       .  A
C467        S471   1.806       .  S
C468        C469   1.407       .  A
C469        C470   1.400       .  A
C469        H476   1.084       .  S
C470        S472   1.802       .  S
S471        H474   1.406       .  S
S472        H473   1.406       .  S
C477        C478   1.401       .  A
C477       C1318   1.419       .  A
C478       C1315   1.401       .  A
C478        H487   1.084       .  S
C479        C480   1.417       .  A
C479       C1314   1.401   1_545  A
C479       S1319   1.805       .  S
C480        C481   1.403       .  A
C481        C482   1.399       .  A
C481        H488   1.084       .  S
C482       C1313   1.419   1_545  A
C482        S484   1.807       .  S
S483       C1315   1.804       .  S
S483       H1322   1.406       .  S
S484       H1321   1.403   1_445  S
H485       S1320   1.403       .  S
H486       S1319   1.406       .  S
C489        C490   1.401       .  A
C489        C494   1.414       .  A
C490        C491   1.396       .  A
C490        H499   1.084       .  S
C491        C492   1.414       .  A
C491        S495   1.801       .  S
C492        C493   1.401       .  A
C493        C494   1.401       .  A
C493        H500   1.084       .  S
C494        S496   1.804       .  S
S495        H498   1.404       .  S
S496        H497   1.405       .  S
C501        C502   1.406   1_545  A
C501        C506   1.418       .  A
C502       C1339   1.403       .  A
C502        H511   1.084       .  S
C503        C504   1.414       .  A
C503       C1338   1.403       .  A
C503        S507   1.804       .  S
C504        C505   1.402       .  A
C505       C1342   1.393       .  A
C505        H512   1.084       .  S
C506       C1341   1.396   1_545  A
C506       S2180   1.804       .  S
S507        H510   1.406       .  S
S508       C2178   1.803       .  S
S508        H509   1.404       .  S
C513        C514   1.404       .  A
C513        C518   1.416       .  A
C514        C515   1.399       .  A
C514        H523   1.084       .  S
C515        C516   1.410       .  A
C515        S519   1.803       .  S
C516        C517   1.403       .  A
C517        C518   1.399       .  A
C517        H524   1.084       .  S
C518        S520   1.800       .  S
S519        H522   1.406       .  S
S520       H2193   1.407       .  S
H521       S2192   1.407       .  S
C525        C526   1.403       .  A
C525        C530   1.413       .  A
C526        C527   1.402       .  A
C526        H535   1.084       .  S
C527       C1364   1.418       .  A
C527        S531   1.806       .  S
C528        C529   1.402       .  A
C528       C1363   1.418   1_545  A
C529       C1366   1.407   1_545  A
C529        H536   1.083       .  S
C530       C1365   1.407       .  A
C530        S532   1.807       .  S
S531       H1370   1.402       .  S
S532        H533   1.406       .  S
H534       S1367   1.401   1_545  S
C537        C538   1.407       .  A
C537        C542   1.413       .  A
C538        C539   1.401       .  A
C538        H547   1.084       .  S
C539        C540   1.409       .  A
C539        S543   1.804       .  S
C540        C541   1.404       .  A
C541        C542   1.396       .  A
C541        H548   1.084       .  S
C542        S544   1.806       .  S
S543        H546   1.405       .  S
S544        H545   1.405       .  S
C549        C550   1.400       .  A
C549        C554   1.412       .  A
C550        C551   1.398       .  A
C550        H559   1.084       .  S
C551        C552   1.418       .  A
C551        S555   1.803       .  S
C552        C553   1.407       .  A
C553        C554   1.405       .  A
C553        H560   1.083       .  S
C554        S556   1.803       .  S
S555        H558   1.408       .  S
S556        H557   1.404       .  S
C561        C562   1.405       .  A
C561        C566   1.408       .  A
C562        C563   1.411       .  A
C562        H571   1.083       .  S
C563        C564   1.421       .  A
C563        S567   1.798       .  S
C564        C565   1.409       .  A
C565        C566   1.392       .  A
C565        H572   1.083       .  S
C566        S568   1.805       .  S
S567        H570   1.407       .  S
S568        H569   1.406       .  S
C573        C574   1.405       .  A
C573        C578   1.416       .  A
C574        C575   1.400       .  A
C574        H583   1.084       .  S
C575        C576   1.411       .  A
C575        S579   1.804       .  S
C576        C577   1.400       .  A
C577        C578   1.402       .  A
C577        H584   1.084       .  S
C578        S580   1.804       .  S
S579        H582   1.406       .  S
S580        H581   1.406       .  S
C585        C586   1.400       .  A
C585        C590   1.410       .  A
C586        C587   1.400       .  A
C586        H595   1.084       .  S
C587        C588   1.415       .  A
C587        S591   1.805       .  S
C588        C589   1.402       .  A
C589        C590   1.396       .  A
C589        H596   1.084       .  S
C590        S592   1.805       .  S
S591        H594   1.405       .  S
S592        H593   1.406       .  S
C597        C598   1.406       .  A
C597        C602   1.416       .  A
C598        C599   1.407       .  A
C598       H1443   1.083       .  S
C599        C600   1.416       .  A
C599       S1439   1.804       .  S
C600        C601   1.400       .  A
C601        C602   1.392       .  A
C601        H608   1.085       .  S
C602        S604   1.804       .  S
S603       C1435   1.804   1_545  S
S603        H606   1.405       .  S
S604        H605   1.408       .  S
H607       C1434   1.083       .  S
C609        C610   1.409       .  A
C609        C614   1.416       .  A
C610        C611   1.390       .  A
C610        H619   1.083       .  S
C611        C612   1.406       .  A
C611        S615   1.805       .  S
C612        C613   1.403       .  A
C613        C614   1.401       .  A
C613       H1456   1.084       .  S
C614       S1452   1.799       .  S
S615        H618   1.406       .  S
S616       C1450   1.800       .  S
S616        H617   1.408       .  S
H620       C1449   1.084       .  S
C621        C622   1.402       .  A
C621        C626   1.409       .  A
C622        C623   1.400       .  A
C622        H631   1.084   1_545  S
C623        C624   1.415       .  A
C623        S627   1.800   1_545  S
C624        C625   1.407       .  A
C625        C626   1.396       .  A
C625        H632   1.082       .  S
C626        S628   1.804       .  S
S627        H630   1.408       .  S
S628        H629   1.405       .  S
C633        C634   1.408       .  A
C633        C638   1.423       .  A
C634        C635   1.407       .  A
C634        H643   1.083       .  S
C635        C636   1.414       .  A
C635        S639   1.807   1_545  S
C636        C637   1.398       .  A
C637        C638   1.394       .  A
C637        H644   1.085       .  S
C638        S640   1.801       .  S
S639        H642   1.402       .  S
S640        H641   1.408       .  S
C645        C646   1.403       .  A
C645       C1486   1.412       .  A
C646       C1483   1.397   1_545  A
C646        H655   1.084       .  S
C647        C648   1.410       .  A
C647       C1482   1.396       .  A
C647        S651   1.805       .  S
C648        C649   1.406       .  A
C649        C650   1.405       .  A
C649        H656   1.084       .  S
C650       C1481   1.413       .  A
C650        S652   1.806       .  S
S651        H654   1.406       .  S
S652       H1489   1.403       .  S
H653       S1488   1.405       .  S
C657        C658   1.401       .  A
C657        C662   1.415       .  A
C658        C659   1.402       .  A
C658        H667   1.083       .  S
C659        C660   1.414       .  A
C659        S663   1.809       .  S
C660        C661   1.400       .  A
C661        C662   1.400       .  A
C661        H668   1.084       .  S
C662        S664   1.804       .  S
S663        H666   1.407       .  S
S664        H665   1.406       .  S
C669        C670   1.402       .  A
C669        C674   1.410       .  A
C670        C671   1.398       .  A
C670        H679   1.084       .  S
C671       C1508   1.416       .  A
C671        S675   1.800       .  S
C672        C673   1.406   1_545  A
C672       C1507   1.417       .  A
C673       C1510   1.405       .  A
C673        H680   1.083       .  S
C674       C1509   1.404       .  A
C674       S1512   1.806       .  S
S675       H1514   1.408       .  S
S676       C1510   1.807       .  S
S676       H1513   1.406       .  S
H677       S1512   1.407       .  S
H678       S1511   1.408       .  S
C681        C682   1.408       .  A
C681        C686   1.418       .  A
C682        C683   1.405       .  A
C682        H691   1.084       .  S
C683        C684   1.413       .  A
C683        S687   1.803       .  S
C684        C685   1.402       .  A
C685        C686   1.400       .  A
C685        H692   1.084       .  S
C686        S688   1.799       .  S
S687        H690   1.406       .  S
S688        H689   1.408       .  S
C693        C694   1.406       .  A
C693        C698   1.415       .  A
C694       C1531   1.403       .  A
C694        H703   1.084       .  S
C695        C696   1.413       .  A
C695       C1530   1.403       .  A
C695        S699   1.805       .  S
C696        C697   1.402       .  A
C697       C1534   1.399   1_545  A
C697        H704   1.084       .  S
C698       C1533   1.399       .  A
C698        S700   1.800       .  S
S699        H702   1.405       .  S
S700        H701   1.408       .  S
C705        C706   1.403       .  A
C705        C710   1.414       .  A
C706        C707   1.401       .  A
C706        H715   1.084       .  S
C707        C708   1.412       .  A
C707        S711   1.802       .  S
C708        C709   1.406       .  A
C709        C710   1.401       .  A
C709        H716   1.084       .  S
C710        S712   1.805       .  S
S711        H714   1.407       .  S
S712        H713   1.406       .  S
C717        C722   1.416       .  A
C717       C1554   1.406       .  A
C718        C719   1.400       .  A
C718       C1553   1.406   1_545  A
C718        H727   1.084       .  S
C719        C720   1.413       .  A
C719        S723   1.805       .  S
C720        C721   1.403       .  A
C721       C1558   1.396   1_545  A
C721        H728   1.084       .  S
C722       C1557   1.395       .  A
C722        S724   1.799       .  S
S723        H726   1.406       .  S
S724        H725   1.408       .  S
C729        C730   1.402       .  A
C729        C734   1.414       .  A
C730        C731   1.401       .  A
C730        H739   1.084       .  S
C731        C732   1.420       .  A
C731        S735   1.799       .  S
C732        C733   1.406       .  A
C733        C734   1.404       .  A
C733        H740   1.084       .  S
C734        S736   1.804       .  S
S735        H738   1.408       .  S
S736        H737   1.405       .  S
C741        C742   1.404       .  A
C741        C746   1.408       .  A
C742        C743   1.404       .  A
C742        H751   1.084       .  S
C743        C744   1.416       .  A
C743        S747   1.799       .  S
C744        C745   1.408       .  A
C745        C746   1.394       .  A
C745        H752   1.083       .  S
C746        S748   1.806       .  S
S747        H750   1.407       .  S
S748        H749   1.404       .  S
C753        C754   1.402       .  A
C753        C758   1.410       .  A
C754        C755   1.401       .  A
C754        H763   1.084       .  S
C755        C756   1.418       .  A
C755        S759   1.799       .  S
C756        C757   1.408       .  A
C757        C758   1.395       .  A
C757        H764   1.084       .  S
C758        S760   1.806       .  S
S759        H762   1.408       .  S
S760        H761   1.405       .  S
C765        C766   1.407       .  A
C765        C770   1.422       .  A
C766        C767   1.406       .  A
C766        H775   1.083       .  S
C767        C768   1.413       .  A
C767        S771   1.803       .  S
C768        C769   1.399       .  A
C769        C770   1.394       .  A
C769        H776   1.085       .  S
C770        S772   1.804       .  S
S771        H774   1.405       .  S
S772        H773   1.407       .  S
C777        C778   1.399       .  A
C777        C782   1.414       .  A
C778        C779   1.393       .  A
C778        H787   1.085       .  S
C779        C780   1.421       .  A
C779        S783   1.803       .  S
C780        C781   1.408       .  A
C781        C782   1.407       .  A
C781        H788   1.083       .  S
C782        S784   1.804       .  S
S783        H786   1.408       .  S
S784        H785   1.405       .  S
C789        C790   1.400       .  A
C789        C794   1.412       .  A
C790        C791   1.400       .  A
C790        H799   1.084   1_545  S
C791        C792   1.415       .  A
C791       S1631   1.803   1_545  S
C792        C793   1.403       .  A
C793        C794   1.399       .  A
C793        H800   1.084       .  S
C794        S796   1.803       .  S
S795       C1627   1.804       .  S
S795        H798   1.406       .  S
S796        H797   1.406       .  S
C801        C802   1.407   1_545  A
C801        C806   1.414       .  A
C802        C803   1.405       .  A
C802       H1647   1.084       .  S
C803        C804   1.412   1_565  A
C803       S1643   1.802       .  S
C804        C805   1.402       .  A
C805        C806   1.399       .  A
C805        H812   1.084       .  S
C806        S808   1.803       .  S
S807       C1639   1.802       .  S
S807       H1646   1.404       .  S
S808        H809   1.404       .  S
H810       S1643   1.404       .  S
H811       C1638   1.084       .  S
C813        C814   1.400       .  A
C813        C818   1.416       .  A
C814        C815   1.396       .  A
C814        H823   1.084       .  S
C815        C816   1.415       .  A
C815        S819   1.802       .  S
C816        C817   1.405       .  A
C817        C818   1.407       .  A
C817       H1660   1.083       .  S
C818       S1656   1.803       .  S
S819        H822   1.407       .  S
S820       C1654   1.804       .  S
S820        H821   1.404       .  S
H824       C1653   1.083       .  S
C825        C826   1.405       .  A
C825        C830   1.413       .  A
C826        C827   1.405       .  A
C826        H835   1.084       .  S
C827        C828   1.414       .  A
C827       S1667   1.803       .  S
C828        C829   1.399       .  A
C829        C830   1.396       .  A
C829        H836   1.083       .  S
C830        S832   1.808       .  S
S831       C1663   1.803       .  S
S831        H834   1.406       .  S
S832        H833   1.407       .  S
N837        H869   1.036       .  S
N837        C841   1.353       .  A
N838       C2517   1.353   1_545  A
N838        C846   1.353   1_645  A
N839        H870   1.036       .  S
N839        C844   1.354       .  A
N840       C2519   1.352       .  A
N840        C848   1.351   1_655  A
C841        C849   1.388       .  A
C841        C857   1.418       .  A
C842        C858   1.420       .  A
C842        C850   1.387       .  A
C843        C851   1.386       .  A
C843        C860   1.415       .  A
C844        C859   1.419       .  A
C844        C852   1.388       .  A
C845       N2510   1.352       .  A
C845        C857   1.417       .  A
C845        C853   1.387   1_545  A
C846        C860   1.415   1_565  A
C846        C854   1.386       .  A
C847       N2512   1.352       .  A
C847        C855   1.386       .  A
C847        C858   1.415       .  A
C848        C856   1.386       .  A
C848        C859   1.414       .  A
C849        H861   1.081       .  S
C850        H862   1.082       .  S
C851        H863   1.082       .  S
C852        H864   1.082       .  S
C853       C2526   1.373       .  A
C853        H865   1.082       .  S
C854       C2525   1.373   1_455  A
C854        H866   1.082       .  S
C855       C2528   1.376       .  A
C855        H867   1.082       .  S
C856       C2527   1.375   1_455  A
C856        H868   1.082       .  S
C857       C1664   1.487   1_545  S
C858       C1637   1.494       .  S
C859       C1628   1.490       .  S
C860       C1649   1.490   1_545  S
N871        H903   1.038       .  S
N871        C876   1.353       .  A
N871        C875   1.354       .  A
N872       C2551   1.350       .  A
N872        C880   1.349       .  A
N873        H904   1.037       .  S
N873        C878   1.353       .  A
N873        C877   1.354       .  A
N874       C2553   1.351       .  A
N874        C882   1.351       .  A
C875        C883   1.388       .  A
C875        C891   1.417       .  A
C876        C892   1.415       .  A
C876        C884   1.386       .  A
C877        C885   1.389       .  A
C877        C894   1.419       .  A
C878        C893   1.414       .  A
C878        C886   1.386       .  A
C879       N2544   1.350   1_455  A
C879        C891   1.412       .  A
C879        C887   1.385       .  A
C880        C894   1.413       .  A
C880        C888   1.387       .  A
C881       N2546   1.351   1_455  A
C881        C889   1.386       .  A
C881        C892   1.412       .  A
C882        C890   1.385       .  A
C882        C893   1.412       .  A
C883        C884   1.371       .  A
C883        H895   1.082       .  S
C884        H896   1.083       .  S
C885        C886   1.372       .  A
C885        H897   1.082       .  S
C886        H898   1.083       .  S
C887       C2560   1.376   1_455  A
C887        H899   1.082       .  S
C888       C2559   1.376       .  A
C888        H900   1.082       .  S
C889       C2562   1.378   1_455  A
C889        H901   1.082       .  S
C890       C2561   1.379       .  A
C890        H902   1.082       .  S
C891       C1577   1.487       .  S
C892       C1604   1.488       .  S
C893       C1613   1.490       .  S
C894       C1589   1.487       .  S
N905        N906   1.327       .  A
N905        N911   1.315       .  A
N905       Mn934   2.234       .  S
N906        C913   1.361       .  A
N907        N909   1.314       .  A
N907        N908   1.313       .  A
N907       Mn923   2.172       .  S
N908        C914   1.346       .  A
N909        N910   1.326       .  A
N909       Mn934   2.226       .  S
N910        C914   1.360       .  A
N911        N912   1.315       .  A
N911       Mn923   2.183       .  S
N912        C913   1.348       .  A
C913       C1616   1.493       .  S
C914       C1601   1.486       .  S
N915        N921   1.313       .  A
N915        N916   1.326       .  A
N915       Mn945   2.220       .  S
N916        C924   1.359       .  A
N917        N918   1.316       .  A
N917        N919   1.313       .  A
N917       Mn923   2.182       .  S
N918        C925   1.350       .  A
N919        N920   1.325       .  A
N919       Mn945   2.214       .  S
N920        C925   1.357       .  A
N921        N922   1.317       .  A
N921       Mn923   2.187       .  S
N922        C924   1.350       .  A
Mn923      Cl947   2.533       .  S
C924       C1652   1.486       .  S
C925       C1661   1.481       .  S
N926        N927   1.322       .  A
N926        N932   1.319       .  A
N926       Mn934   2.217       .  S
N927        C935   1.354       .  A
N928        N930   1.319       .  A
N928        N929   1.322       .  A
N928       Mn946   2.219       .  S
N929        C936   1.354       .  A
N930        N931   1.323       .  A
N930       Mn934   2.214       .  S
N931        C936   1.354       .  A
N932        N933   1.321       .  A
N932       Mn946   2.212       .  S
N933        C935   1.354       .  A
Mn934      Cl947   2.562       .  S
C935       C1544   1.483       .  S
C936       C1568   1.491       .  S
N937        N938   1.318       .  A
N937        N943   1.316       .  A
N937       Mn945   2.195       .  S
N938        C948   1.353       .  A
N939        N940   1.322       .  A
N939        N941   1.318       .  A
N939       Mn946   2.222       .  S
N940        C949   1.356       .  A
N941        N942   1.319       .  A
N941       Mn945   2.196       .  S
N942        C949   1.351       .  A
N943        N944   1.319       .  A
N943       Mn946   2.210       .  S
N944        C948   1.354       .  A
Mn945      Cl947   2.559       .  S
Mn946      Cl947   2.538       .  S
C948       C1553   1.483       .  S
C949       C1529   1.481       .  S
N950        N951   1.323       .  A
N950        N956   1.315       .  A
N950       Mn979   2.216       .  S
N951        C958   1.357       .  A
N952        N954   1.313       .  A
N952        N953   1.314       .  A
N952       Mn968   2.174       .  S
N953        C959   1.349       .  A
N954        N955   1.326       .  A
N954       Mn979   2.218       .  S
N955        C959   1.359       .  A
N956        N957   1.317       .  A
N956       Mn968   2.192       .  S
N957        C958   1.352       .  A
C958       C1592   1.488       .  S
C959       C1580   1.487       .  S
N960        N966   1.315       .  A
N960        N961   1.323       .  A
N960       Mn990   2.209       .  S
N961        C969   1.353       .  A
N962        N963   1.316       .  A
N962        N964   1.313       .  A
N962       Mn968   2.186       .  S
N963        C970   1.350       .  A
N964        N965   1.325       .  A
N964       Mn990   2.214       .  S
N965        C970   1.357       .  A
N966        N967   1.319       .  A
N966       Mn968   2.195       .  S
N967        C969   1.351       .  A
Mn968      Cl992   2.541       .  S
C969       C1625   1.472       .  S
C970       C1640   1.475       .  S
N971        N972   1.318       .  A
N971        N977   1.317       .  A
N971       Mn979   2.195       .  S
N972        C980   1.351       .  A
N973        N975   1.317       .  A
N973        N974   1.321       .  A
N973       Mn991   2.215       .  S
N974        C981   1.354       .  A
N975        N976   1.322       .  A
N975       Mn979   2.210       .  S
N976        C981   1.355       .  A
N977        N978   1.321       .  A
N977       Mn991   2.214       .  S
N978        C980   1.355       .  A
Mn979      Cl992   2.550       .  S
C980       C1496   1.472       .  S
C981       C1517   1.492       .  S
N982        N983   1.320       .  A
N982        N988   1.317       .  A
N982       Mn990   2.200       .  S
N983        C993   1.353       .  A
N984        N985   1.323       .  A
N984        N986   1.316       .  A
N984       Mn991   2.220       .  S
N985        C994   1.357       .  A
N986        N987   1.318       .  A
N986       Mn990   2.196       .  S
N987        C994   1.352       .  A
N988        N989   1.320       .  A
N988       Mn991   2.210       .  S
N989        C993   1.353       .  A
Mn990      Cl992   2.551       .  S
Mn991      Cl992   2.544       .  S
C993       C1508   1.481       .  S
C994       C1481   1.476       .  S
N995       H1027   1.040   1_545  S
N995        C999   1.354   1_556  A
N996       C1003   1.350       .  A
N996       C1004   1.348       .  A
N997       H1028   1.041       .  S
N997       C1001   1.352   1_556  A
N998       C1005   1.349       .  A
N998       C1006   1.350       .  A
C999       C1007   1.385       .  A
C999       C1015   1.415   1_545  A
C1000      C1016   1.416       .  A
C1000      C1008   1.389       .  A
C1001      C1009   1.386       .  A
C1001      C1018   1.414       .  A
C1002      C1017   1.418       .  A
C1002      C1010   1.388       .  A
C1003      C1015   1.410       .  A
C1003      C1011   1.385       .  A
C1004      C1018   1.408       .  A
C1004      C1012   1.386       .  A
C1005      C1013   1.386       .  A
C1005      C1016   1.411       .  A
C1006      C1014   1.386       .  A
C1006      C1017   1.411       .  A
C1007      H1019   1.082       .  S
C1008      H1020   1.081       .  S
C1009      H1021   1.082       .  S
C1010      H1022   1.082       .  S
C1011      C1012   1.377       .  A
C1011      H1023   1.082       .  S
C1012      H1024   1.082       .  S
C1013      C1014   1.375       .  A
C1013      H1025   1.082       .  S
C1014      H1026   1.082       .  S
C1015      C1436   1.492       .  S
C1016      C1457   1.483       .  S
C1017      C1472   1.487       .  S
C1018      C1448   1.481       .  S
N1029      H1061   1.037       .  S
N1029      C1034   1.353       .  A
N1029      C1033   1.356   1_554  A
N1030      C1037   1.350       .  A
N1030      C1038   1.350       .  A
N1031      H1062   1.039       .  S
N1031      C1036   1.353       .  A
N1031      C1035   1.352   1_554  A
N1032      C1039   1.350       .  A
N1032      C1040   1.353       .  A
C1033      C1041   1.388       .  A
C1033      C1049   1.421       .  A
C1034      C1050   1.416       .  A
C1034      C1042   1.387       .  A
C1035      C1043   1.387       .  A
C1035      C1052   1.415       .  A
C1036      C1051   1.413       .  A
C1036      C1044   1.386       .  A
C1037      C1049   1.411       .  A
C1037      C1045   1.386       .  A
C1038      C1052   1.411       .  A
C1038      C1046   1.386       .  A
C1039      C1047   1.387       .  A
C1039      C1050   1.413       .  A
C1040      C1048   1.385       .  A
C1040      C1051   1.412       .  A
C1041      C1042   1.377   1_556  A
C1041      H1053   1.082       .  S
C1042      H1054   1.082       .  S
C1043      C1044   1.376   1_556  A
C1043      H1055   1.082       .  S
C1044      H1056   1.082       .  S
C1045      C1046   1.373       .  A
C1045      H1057   1.082       .  S
C1046      H1058   1.082       .  S
C1047      C1048   1.375       .  A
C1047      H1059   1.082       .  S
C1048      H1060   1.082       .  S
C1049      C1409   1.493       .  S
C1050      C1385   1.484       .  S
C1051      C1397   1.490       .  S
C1052      C1424   1.486       .  S
N1063      N1064   1.325       .  A
N1063      N1069   1.314       .  A
N1063     Mn1092   2.211       .  S
N1064      C1071   1.355       .  A
N1065      N1067   1.313       .  A
N1065      N2738   1.316       .  A
N1065     Mn1081   2.181       .  S
N1066      C1072   1.348       .  A
N1066      N2737   1.317       .  A
N1067      N2740   1.324       .  A
N1067     Mn1092   2.202       .  S
N1068      C1072   1.355       .  A
N1068      N2739   1.325       .  A
N1069      N1070   1.316       .  A
N1069     Mn1081   2.182       .  S
N1070      C1071   1.348       .  A
C1071      C1421   1.468       .  S
C1072      C1412   1.470       .  S
N1073      N1079   1.313       .  A
N1073      N2746   1.322       .  A
N1073     Mn1103   2.211       .  S
N1074      C1082   1.357       .  A
N1074      N2745   1.323       .  A
N1075      N1076   1.315       .  A
N1075      N1077   1.314       .  A
N1075     Mn1081   2.178       .  S
N1076      C1083   1.347       .  A
N1077      N1078   1.325       .  A
N1077     Mn1103   2.224       .  S
N1078      C1083   1.361       .  A
N1079      N2752   1.317       .  A
N1079     Mn1081   2.176       .  S
N1080      C1082   1.350       .  A
N1080      N2751   1.316       .  A
Mn1081    Cl1105   2.534       .  S
C1082      C1460   1.484       .  S
C1083      C1469   1.491       .  S
N1084      N1085   1.320       .  A
N1084      N1090   1.316       .  A
N1084     Mn2764   2.194   1_455  S
N1085      C1093   1.352       .  A
N1086      N1088   1.316       .  A
N1086      N1087   1.321       .  A
N1086     Mn1104   2.211       .  S
N1087      C1094   1.355       .  A
N1088      N1089   1.316       .  A
N1088     Mn1092   2.188       .  S
N1089      C1094   1.350       .  A
N1090      N1091   1.322       .  A
N1090     Mn2776   2.220   1_455  S
N1091      C1093   1.356       .  A
Mn1092     N2756   2.195       .  S
Mn1092    Cl1105   2.550       .  S
C1093      C1349   1.483       .  S
C1094      C1376   1.467       .  S
N1095      N1096   1.321       .  A
N1095      N1101   1.319       .  A
N1095     Mn1103   2.206       .  S
N1096      C1106   1.353       .  A
N1097      N1098   1.319       .  A
N1097      N1099   1.317       .  A
N1097     Mn2776   2.209   1_455  S
N1098      C1107   1.353       .  A
N1099      N1100   1.320       .  A
N1099     Mn2775   2.196   1_455  S
N1100      C1107   1.352       .  A
N1101      N1102   1.323       .  A
N1101     Mn1104   2.222       .  S
N1102      C1106   1.354       .  A
Mn1103     N2771   2.198       .  S
Mn1103    Cl1105   2.551       .  S
Mn1104     N2762   2.210       .  S
Mn1104     N2769   2.204       .  S
Mn1104    Cl1105   2.536       .  S
C1106      C1364   1.482       .  S
C1107      C1337   1.482       .  S
N1108      H1140   1.037       .  S
N1108      C1113   1.352       .  A
N1108      C1112   1.353       .  A
N1109      C1116   1.353       .  A
N1109      C1117   1.351       .  A
N1110      H1141   1.039       .  S
N1110      C1115   1.355       .  A
N1110      C1114   1.355       .  A
N1111      C1118   1.351       .  A
N1111      C1119   1.350       .  A
C1112      C1120   1.387       .  A
C1112      C1128   1.415       .  A
C1113      C1129   1.415       .  A
C1113      C1121   1.386       .  A
C1114      C1122   1.387       .  A
C1114      C1131   1.418       .  A
C1115      C1130   1.418       .  A
C1115      C1123   1.387       .  A
C1116      C1128   1.414       .  A
C1116      C1124   1.386       .  A
C1117      C1131   1.415       .  A
C1117      C1125   1.387       .  A
C1118      C1126   1.386       .  A
C1118      C1129   1.412       .  A
C1119      C1127   1.386       .  A
C1119      C1130   1.411       .  A
C1120      C1121   1.376       .  A
C1120      H1132   1.082       .  S
C1121      H1133   1.082       .  S
C1122      C1123   1.378       .  A
C1122      H1134   1.082       .  S
C1123      H1135   1.082       .  S
C1124      C1125   1.370       .  A
C1126      C1127   1.371       .  A
C1126      H1138   1.082       .  S
C1127      H1139   1.082       .  S
C1128      C1484   1.487       .  S
C1129      C1493   1.487       .  S
C1130      C1352   1.491       .  S
C1131      C1340   1.493       .  S
N1142      H1174   1.040       .  S
N1142      C1147   1.355       .  A
N1142      C1146   1.352       .  A
N1143      C1150   1.350       .  A
N1143      C1151   1.353       .  A
N1144      H1175   1.039       .  S
N1144      C1149   1.351       .  A
N1144      C1148   1.354       .  A
N1145      C1152   1.353       .  A
N1145      C1153   1.350       .  A
C1146      C1154   1.387       .  A
C1146      C1162   1.415       .  A
C1147      C1163   1.416       .  A
C1147      C1155   1.386       .  A
C1148      C1156   1.387       .  A
C1148      C1165   1.415       .  A
C1149      C1164   1.413       .  A
C1149      C1157   1.387       .  A
C1150      C1162   1.416       .  A
C1150      C1158   1.388       .  A
C1151      C1165   1.415       .  A
C1151      C1159   1.385       .  A
C1152      C1160   1.385       .  A
C1152      C1163   1.414       .  A
C1153      C1161   1.387       .  A
C1153      C1164   1.413       .  A
C1154      C1155   1.377       .  A
C1156      C1157   1.376       .  A
C1156      H1168   1.082       .  S
C1157      H1169   1.083       .  S
C1158      C1159   1.378       .  A
C1158      H1170   1.082       .  S
C1159      H1171   1.082       .  S
C1160      C1161   1.375       .  A
C1160      H1172   1.082       .  S
C1161      H1173   1.082       .  S
C1162      C1505   1.491       .  S
C1163      C1361   1.501       .  S
C1164      C1373   1.484       .  S
C1165      C1520   1.496       .  S
N1176      H1208   1.039       .  S
N1176      C1181   1.352       .  A
N1176      C1180   1.354       .  A
N1177      C1184   1.352       .  A
N1177      C1185   1.351       .  A
N1178      H1209   1.041       .  S
N1178      C1183   1.355       .  A
N1178      C1182   1.354       .  A
N1179      C1186   1.352       .  A
N1179      C1187   1.352       .  A
C1180      C1188   1.387       .  A
C1180      C1196   1.418       .  A
C1181      C1197   1.416       .  A
C1181      C1189   1.387       .  A
C1182      C1190   1.387       .  A
C1182      C1199   1.418       .  A
C1183      C1198   1.416       .  A
C1183      C1191   1.386       .  A
C1184      C1196   1.415       .  A
C1184      C1192   1.387       .  A
C1185      C1199   1.412       .  A
C1185      C1193   1.386       .  A
C1186      C1194   1.388       .  A
C1186      C1197   1.415       .  A
C1187      C1195   1.385       .  A
C1187      C1198   1.413       .  A
C1188      C1189   1.376       .  A
C1188      H1200   1.082       .  S
C1189      H1201   1.081       .  S
C1190      C1191   1.377       .  A
C1190      H1202   1.082       .  S
C1191      H1203   1.082       .  S
C1192      C1193   1.373       .  A
C1194      C1195   1.370       .  A
C1194      H1206   1.082       .  S
C1195      H1207   1.082       .  S
C1196      C1316   1.494       .  S
C1197      C1325   1.486       .  S
C1198      C1541   1.494       .  S
C1199      C1532   1.492       .  S
N1210      H1242   1.040       .  S
N1210      C1215   1.355       .  A
N1210      C1214   1.352       .  A
N1211      C1218   1.349       .  A
N1211      C1219   1.352       .  A
N1212      H1243   1.040       .  S
N1212      C1217   1.353       .  A
N1212      C1216   1.355       .  A
N1213      C1220   1.354       .  A
N1213      C1221   1.351       .  A
C1214      C1222   1.387       .  A
C1214      C1230   1.416       .  A
C1215      C1231   1.416       .  A
C1215      C1223   1.387       .  A
C1216      C1224   1.385       .  A
C1216      C1233   1.415       .  A
C1217      C1232   1.419       .  A
C1217      C1225   1.389       .  A
C1218      C1230   1.414       .  A
C1218      C1226   1.387       .  A
C1219      C1233   1.412       .  A
C1219      C1227   1.385       .  A
C1220      C1228   1.384       .  A
C1220      C1231   1.414       .  A
C1221      C1229   1.388       .  A
C1221      C1232   1.418       .  A
C1222      C1223   1.373       .  A
C1224      C1225   1.377       .  A
C1224      H1236   1.082       .  S
C1225      H1237   1.082       .  S
C1226      C1227   1.377       .  A
C1226      H1238   1.082       .  S
C1227      H1239   1.082       .  S
C1228      C1229   1.376       .  A
C1228      H1240   1.082       .  S
C1229      H1241   1.082       .  S
C1230      C1556   1.488       .  S
C1231      C1289   1.496       .  S
C1232      C1304   1.494       .  S
C1233      C1565   1.494       .  S
N1244      N1245   1.329       .  A
N1244      N1250   1.311       .  A
N1244     Mn1273   2.228       .  S
N1245      C1252   1.362       .  A
N1246      N1248   1.312       .  A
N1246      N2919   1.316       .  A
N1246     Mn1262   2.176       .  S
N1247      C1253   1.350       .  A
N1247      N2918   1.317       .  A
N1248      N2921   1.326       .  A
N1248     Mn1273   2.230       .  S
N1249      C1253   1.357       .  A
N1249      N2920   1.324       .  A
N1250      N1251   1.313       .  A
N1250     Mn1262   2.172       .  S
N1251      C1252   1.349       .  A
C1252      C1400   1.498       .  S
C1253      C1388   1.482       .  S
N1254      N1260   1.313       .  A
N1254      N2927   1.327       .  A
N1254     Mn1284   2.226       .  S
N1255      C1263   1.361       .  A
N1255      N2926   1.328       .  A
N1256      N1257   1.312       .  A
N1256      N1258   1.313       .  A
N1256     Mn1262   2.165       .  S
N1257      C1264   1.346       .  A
N1258      N1259   1.326       .  A
N1258     Mn1284   2.222       .  S
N1259      C1264   1.360       .  A
N1260      N2933   1.314       .  A
N1260     Mn1262   2.167       .  S
N1261      C1263   1.346       .  A
N1261      N2932   1.314       .  A
Mn1262    Cl1286   2.534       .  S
C1263      C1433   1.487       .  S
C1264      C1445   1.485       .  S
N1265      N1266   1.318       .  A
N1265      N1271   1.317       .  A
N1265     Mn2945   2.193   1_455  S
N1266      C1274   1.350       .  A
N1267      N1269   1.319       .  A
N1267      N1268   1.324       .  A
N1267     Mn1285   2.229       .  S
N1268      C1275   1.357       .  A
N1269      N1270   1.318       .  A
N1269     Mn1273   2.200       .  S
N1270      C1275   1.351       .  A
N1271      N1272   1.321       .  A
N1271     Mn2957   2.211   1_455  S
N1272      C1274   1.355       .  A
Mn1273     N2937   2.192       .  S
Mn1273    Cl1286   2.552       .  S
C1274      C1328   1.471       .  S
C1275      C1301   1.478       .  S
N1276      N1277   1.322       .  A
N1276      N1282   1.318       .  A
N1276     Mn1284   2.211       .  S
N1277      C1287   1.353       .  A
N1278      N1279   1.322       .  A
N1278      N1280   1.319       .  A
N1278     Mn2957   2.226   1_455  S
N1279      C1288   1.355       .  A
N1280      N1281   1.319       .  A
N1280     Mn2956   2.195   1_455  S
N1281      C1288   1.350       .  A
N1282      N1283   1.322       .  A
N1282     Mn1285   2.214       .  S
N1283      C1287   1.354       .  A
Mn1284     N2952   2.202       .  S
Mn1284    Cl1286   2.554       .  S
Mn1285     N2943   2.211       .  S
Mn1285     N2950   2.229       .  S
Mn1285    Cl1286   2.542       .  S
C1287      C1292   1.483       .  S
C1288      C1313   1.479       .  S
C1289      C1290   1.402       .  A
C1289      C1294   1.417       .  A
C1290      H1299   1.084       .  S
C1291      C1292   1.415       .  A
C1291      S1295   1.799       .  S
C1293      C1294   1.407       .  A
C1293      H1300   1.084       .  S
C1294      S1296   1.805       .  S
S1295      H1298   1.406       .  S
S1296      H1297   1.404       .  S
C1301      C1302   1.405       .  A
C1301      C1306   1.412       .  A
C1302      C1303   1.398       .  A
C1302      H1311   1.083       .  S
C1303      C1304   1.413       .  A
C1303      S1307   1.805       .  S
C1304      C1305   1.406       .  A
C1305      C1306   1.402       .  A
C1305      H1312   1.084       .  S
C1306      S1308   1.805       .  S
S1307      H1310   1.406       .  S
S1308      H1309   1.403       .  S
C1313      C1314   1.401       .  A
C1314      H1323   1.084       .  S
C1315      C1316   1.416       .  A
C1316      C1317   1.402       .  A
C1317      C1318   1.398       .  A
C1317      H1324   1.084       .  S
C1318      S1320   1.806       .  S
C1325      C1326   1.401       .  A
C1325      C1330   1.415       .  A
C1326      C1327   1.395       .  A
C1326      H1335   1.084       .  S
C1327      C1328   1.414       .  A
C1327      S1331   1.802       .  S
C1328      C1329   1.401       .  A
C1329      C1330   1.401       .  A
C1329      H1336   1.084       .  S
C1330      S1332   1.805       .  S
S1331      H1334   1.404       .  S
S1332      H1333   1.404       .  S
C1337      C1338   1.407       .  A
C1337      C1342   1.417       .  A
C1338      H1347   1.084       .  S
C1339      C1340   1.414       .  A
C1339      S1343   1.804       .  S
C1340      C1341   1.402       .  A
C1341      H1348   1.084       .  S
C1342      S3016   1.803       .  S
S1343      H1346   1.405       .  S
S1344      C3014   1.804       .  S
S1344      H1345   1.404       .  S
C1349      C1350   1.406       .  A
C1349      C1354   1.416       .  A
C1350      C1351   1.402       .  A
C1350      H1359   1.084       .  S
C1351      C1352   1.412       .  A
C1351      S1355   1.804       .  S
C1352      C1353   1.403       .  A
C1353      C1354   1.399       .  A
C1353      H1360   1.084       .  S
C1354      S1356   1.799       .  S
S1355      H1358   1.406       .  S
S1356      H3029   1.408       .  S
H1357      S3028   1.408       .  S
C1361      C1362   1.405       .  A
C1361      C1366   1.415       .  A
C1362      C1363   1.403       .  A
C1362      H1371   1.084       .  S
C1363      S1367   1.806       .  S
C1364      C1365   1.402       .  A
C1365      H1372   1.083       .  S
C1366      S1368   1.808       .  S
S1368      H1369   1.406   1_565  S
C1373      C1374   1.406       .  A
C1373      C1378   1.412       .  A
C1374      C1375   1.399       .  A
C1374      H1383   1.084       .  S
C1375      C1376   1.408       .  A
C1375      S1379   1.804       .  S
C1376      C1377   1.404       .  A
C1377      C1378   1.395       .  A
C1377      H1384   1.085       .  S
C1378      S1380   1.806       .  S
S1379      H1382   1.404       .  S
S1380      H1381   1.405       .  S
C1385      C1386   1.399       .  A
C1385      C1390   1.412       .  A
C1386      C1387   1.395       .  A
C1386      H1395   1.084       .  S
C1387      C1388   1.417       .  A
C1387      S1391   1.803       .  S
C1388      C1389   1.405       .  A
C1389      C1390   1.403       .  A
C1389      H1396   1.083       .  S
C1390      S1392   1.804       .  S
S1391      H1394   1.408       .  S
S1392      H1393   1.404       .  S
C1397      C1398   1.406       .  A
C1397      C1402   1.408       .  A
C1398      C1399   1.411       .  A
C1398      H1407   1.083       .  S
C1399      C1400   1.420       .  A
C1399      S1403   1.798       .  S
C1400      C1401   1.409       .  A
C1401      C1402   1.392       .  A
C1401      H1408   1.083       .  S
C1402      S1404   1.806       .  S
S1403      H1406   1.407       .  S
S1404      H1405   1.405       .  S
C1409      C1410   1.405       .  A
C1409      C1414   1.415       .  A
C1410      C1411   1.400       .  A
C1410      H1419   1.083       .  S
C1411      C1412   1.411       .  A
C1411      S1415   1.804       .  S
C1412      C1413   1.400       .  A
C1413      C1414   1.401       .  A
C1413      H1420   1.084       .  S
C1414      S1416   1.803       .  S
S1415      H1418   1.407       .  S
S1416      H1417   1.407       .  S
C1421      C1422   1.401       .  A
C1421      C1426   1.411       .  A
C1422      C1423   1.401       .  A
C1422      H1431   1.084       .  S
C1423      C1424   1.415       .  A
C1423      S1427   1.805       .  S
C1424      C1425   1.402       .  A
C1425      C1426   1.397       .  A
C1425      H1432   1.084       .  S
C1426      S1428   1.804       .  S
S1427      H1430   1.406       .  S
S1428      H1429   1.406       .  S
C1433      C1434   1.407       .  A
C1433      C1438   1.418       .  A
C1434      C1435   1.408       .  A
C1435      C1436   1.416       .  A
C1436      C1437   1.400       .  A
C1437      C1438   1.393       .  A
C1437      H1444   1.085       .  S
C1438      S1440   1.804       .  S
S1439      H1442   1.405       .  S
S1440      H1441   1.408       .  S
C1445      C1446   1.409       .  A
C1445      C1450   1.416       .  A
C1446      C1447   1.390       .  A
C1446      H1455   1.083       .  S
C1447      C1448   1.407       .  A
C1447      S1451   1.805       .  S
C1448      C1449   1.404       .  A
C1449      C1450   1.404       .  A
S1451      H1454   1.406       .  S
S1452      H1453   1.408       .  S
C1457      C1458   1.402       .  A
C1457      C1462   1.409       .  A
C1458      C1459   1.400       .  A
C1458      H1467   1.084       .  S
C1459      C1460   1.415       .  A
C1459      S1463   1.800       .  S
C1460      C1461   1.408       .  A
C1461      C1462   1.396       .  A
C1461      H1468   1.082       .  S
C1462      S1464   1.805       .  S
S1463      H1466   1.407       .  S
S1464      H1465   1.405       .  S
C1469      C1470   1.408       .  A
C1469      C1474   1.422       .  A
C1470      C1471   1.405       .  A
C1470      H1479   1.083       .  S
C1471      C1472   1.412       .  A
C1471      S1475   1.804       .  S
C1472      C1473   1.398       .  A
C1473      C1474   1.394       .  A
C1473      H1480   1.085       .  S
C1474      S1476   1.801       .  S
S1475      H1478   1.402       .  S
S1476      H1477   1.408       .  S
C1481      C1482   1.404       .  A
C1482      H1491   1.084       .  S
C1483      C1484   1.411       .  A
C1483      S1487   1.804       .  S
C1484      C1485   1.405       .  A
C1485      C1486   1.402   1_565  A
C1485      H1492   1.084       .  S
C1486      S1488   1.804       .  S
S1487      H1490   1.406       .  S
C1493      C1494   1.401       .  A
C1493      C1498   1.414       .  A
C1494      C1495   1.401       .  A
C1494      H1503   1.083       .  S
C1495      C1496   1.414       .  A
C1495      S1499   1.809       .  S
C1496      C1497   1.399       .  A
C1497      C1498   1.399       .  A
C1497      H1504   1.084       .  S
C1498      S1500   1.804       .  S
S1499      H1502   1.407       .  S
S1500      H1501   1.406       .  S
C1505      C1506   1.402       .  A
C1505      C1510   1.410       .  A
C1506      C1507   1.399   1_565  A
C1506      H1515   1.084       .  S
C1507      S1511   1.799       .  S
C1508      C1509   1.405       .  A
C1509      H1516   1.083       .  S
C1517      C1518   1.407       .  A
C1517      C1522   1.419       .  A
C1518      C1519   1.405       .  A
C1518      H1527   1.084       .  S
C1519      C1520   1.414       .  A
C1519      S1523   1.804       .  S
C1520      C1521   1.402       .  A
C1521      C1522   1.400       .  A
C1521      H1528   1.084       .  S
C1522      S1524   1.799       .  S
S1523      H1526   1.405       .  S
S1524      H1525   1.408       .  S
C1529      C1530   1.405   1_565  A
C1529      C1534   1.415       .  A
C1530      H1539   1.084       .  S
C1531      C1532   1.413       .  A
C1531      S1535   1.804       .  S
C1532      C1533   1.403       .  A
C1533      H1540   1.084       .  S
C1534      S1536   1.802       .  S
S1535      H1538   1.406       .  S
S1536      H1537   1.408       .  S
C1541      C1542   1.404       .  A
C1541      C1546   1.413       .  A
C1542      C1543   1.404       .  A
C1542      H1551   1.084       .  S
C1543      C1544   1.413       .  A
C1543      S1547   1.803       .  S
C1544      C1545   1.404       .  A
C1545      C1546   1.400       .  A
C1545      H1552   1.081       .  S
C1546      S1548   1.805       .  S
S1547      H1550   1.406       .  S
S1548      H1549   1.406       .  S
C1553      C1558   1.417       .  A
C1554      C1555   1.400       .  A
C1554      H1563   1.084       .  S
C1555      C1556   1.413       .  A
C1555      S1559   1.805       .  S
C1556      C1557   1.402       .  A
C1557      H1564   1.084       .  S
C1558      S1560   1.800       .  S
S1559      H1562   1.406       .  S
S1560      H1561   1.408       .  S
C1565      C1566   1.402       .  A
C1565      C1570   1.413       .  A
C1566      C1567   1.406       .  A
C1566      H1575   1.083       .  S
C1567      C1568   1.418       .  A
C1567      S1571   1.807       .  S
C1568      C1569   1.405       .  A
C1569      C1570   1.404       .  A
C1569      H1576   1.084       .  S
C1570      S1572   1.803       .  S
S1571      H1574   1.406       .  S
S1572      H1573   1.405       .  S
C1577      C1578   1.405       .  A
C1577      C1582   1.409       .  A
C1578      C1579   1.404       .  A
C1578      H1587   1.084       .  S
C1579      C1580   1.416       .  A
C1579      S1583   1.800       .  S
C1580      C1581   1.408       .  A
C1581      C1582   1.394       .  A
C1581      H1588   1.083       .  S
C1582      S1584   1.805       .  S
S1583      H1586   1.407       .  S
S1584      H1585   1.404       .  S
C1589      C1590   1.402       .  A
C1589      C1594   1.408       .  A
C1590      C1591   1.403       .  A
C1590      H1599   1.084       .  S
C1591      C1592   1.419       .  A
C1591      S1595   1.800       .  S
C1592      C1593   1.408       .  A
C1593      C1594   1.396       .  A
C1593      H1600   1.084       .  S
C1594      S1596   1.803       .  S
S1595      H1598   1.407       .  S
S1596      H1597   1.406       .  S
C1601      C1602   1.407       .  A
C1601      C1606   1.420       .  A
C1602      C1603   1.405       .  A
C1602      H1611   1.083       .  S
C1603      C1604   1.413       .  A
C1603      S1607   1.803       .  S
C1604      C1605   1.399       .  A
C1605      C1606   1.393       .  A
C1605      H1612   1.085       .  S
C1606      S1608   1.804       .  S
S1607      H1610   1.405       .  S
S1608      H1609   1.407       .  S
C1613      C1614   1.399       .  A
C1613      C1618   1.415       .  A
C1614      C1615   1.394       .  A
C1614      H1623   1.085       .  S
C1615      C1616   1.421       .  A
C1615      S1619   1.803       .  S
C1616      C1617   1.408       .  A
C1617      C1618   1.407       .  A
C1617      H1624   1.083       .  S
C1618      S1620   1.806       .  S
S1619      H1622   1.407       .  S
S1620      H1621   1.403       .  S
C1625      C1626   1.401       .  A
C1625      C1630   1.412       .  A
C1626      C1627   1.401       .  A
C1626      H1635   1.084       .  S
C1627      C1628   1.415       .  A
C1628      C1629   1.403       .  A
C1629      C1630   1.399       .  A
C1629      H1636   1.084       .  S
C1630      S1632   1.803       .  S
S1631      H1634   1.406       .  S
S1632      H1633   1.406       .  S
C1637      C1638   1.407       .  A
C1637      C1642   1.414       .  A
C1638      C1639   1.404       .  A
C1639      C1640   1.412       .  A
C1640      C1641   1.402       .  A
C1641      C1642   1.398       .  A
C1641      H1648   1.084       .  S
C1642      S1644   1.803       .  S
S1644      H1645   1.404       .  S
C1649      C1650   1.399       .  A
C1649      C1654   1.415   1_565  A
C1650      C1651   1.395       .  A
C1650      H1659   1.084       .  S
C1651      C1652   1.416       .  A
C1651      S1655   1.801       .  S
C1652      C1653   1.406   1_565  A
C1653      C1654   1.407       .  A
S1655      H1658   1.407       .  S
S1656      H1657   1.405       .  S
C1661      C1662   1.406   1_565  A
C1661      C1666   1.414       .  A
C1662      C1663   1.405       .  A
C1662      H1671   1.083       .  S
C1663      C1664   1.413   1_545  A
C1664      C1665   1.399       .  A
C1665      C1666   1.397       .  A
C1665      H1672   1.083       .  S
C1666      S1668   1.807       .  S
S1667      H1670   1.406       .  S
S1668      H1669   1.407       .  S
N1673      H1705   1.034       .  S
N1673      C2514   1.355       .  A
N1673      C1677   1.355       .  A
N1674      C1682   1.354       .  A
N1675      H1706   1.038   1_545  S
N1675      C1680   1.354       .  A
N1675      C2515   1.355       .  A
N1676      C1684   1.350       .  A
C1677      C1685   1.388       .  A
C1677      C1693   1.421       .  A
C1678      N2509   1.355       .  A
C1678      C1694   1.420       .  A
C1678      C1686   1.387       .  A
C1679      N2511   1.355       .  A
C1679      C1687   1.385       .  A
C1679      C1696   1.416       .  A
C1680      C1695   1.420       .  A
C1680      C1688   1.388       .  A
C1681      C1693   1.419       .  A
C1681      C1689   1.387       .  A
C1682      C1696   1.414       .  A
C1682      C1690   1.385       .  A
C1683      C1691   1.386       .  A
C1683      C1694   1.414       .  A
C1684      C1692   1.386       .  A
C1684      C1695   1.415       .  A
C1685      C2522   1.374       .  A
C1685      H1697   1.081       .  S
C1686      C2521   1.374       .  A
C1686      H1698   1.082       .  S
C1687      C2524   1.373       .  A
C1687      H1699   1.081       .  S
C1688      C2523   1.374       .  A
C1688      H1700   1.082       .  S
C1689      H1701   1.082       .  S
C1690      H1702   1.082       .  S
C1691      H1703   1.082       .  S
C1692      H1704   1.082       .  S
C1693      C2500   1.495       .  S
C1694      C2473   1.494       .  S
C1695      C2464   1.491       .  S
C1696      C2485   1.494       .  S
N1707      H1739   1.042       .  S
N1707      C1712   1.353       .  A
N1707      C1711   1.354       .  A
N1708      C1716   1.350       .  A
N1709      H1740   1.037       .  S
N1709      C1714   1.354       .  A
N1709      C1713   1.355       .  A
N1710      C1718   1.351       .  A
C1711      C1719   1.388       .  A
C1711      C1727   1.417       .  A
C1712      C1728   1.415       .  A
C1712      C1720   1.386       .  A
C1713      C1721   1.389       .  A
C1713      C1730   1.421       .  A
C1714      C1729   1.416       .  A
C1714      C1722   1.386       .  A
C1715      C1727   1.410       .  A
C1715      C1723   1.385       .  A
C1716      C1730   1.413       .  A
C1716      C1724   1.387       .  A
C1717      C1725   1.386       .  A
C1717      C1728   1.412       .  A
C1718      C1726   1.385       .  A
C1718      C1729   1.412       .  A
C1719      C1720   1.373       .  A
C1719      H1731   1.082       .  S
C1720      H1732   1.082       .  S
C1721      C1722   1.370       .  A
C1721      H1733   1.081       .  S
C1722      H1734   1.082       .  S
C1723      H1735   1.082       .  S
C1724      H1736   1.082       .  S
C1725      H1737   1.082       .  S
C1726      H1738   1.082       .  S
C1727      C2413   1.486       .  S
C1728      C2440   1.490       .  S
C1729      C2449   1.490       .  S
C1730      C2425   1.488       .  S
N1741      N1742   1.328       .  A
N1741      N1747   1.314       .  A
N1741     Mn1770   2.236       .  S
N1742      C1749   1.363       .  A
N1743      N1745   1.314       .  A
N1743      N1744   1.314       .  A
N1743     Mn1759   2.178       .  S
N1744      C1750   1.347       .  A
N1745      N1746   1.328       .  A
N1745     Mn1770   2.233       .  S
N1746      C1750   1.362       .  A
N1747      N1748   1.313       .  A
N1747     Mn1759   2.176       .  S
N1748      C1749   1.346       .  A
C1749      C2452   1.493       .  S
C1750      C2437   1.492       .  S
N1751      N1757   1.313       .  A
N1751      N1752   1.326       .  A
N1751     Mn1781   2.219       .  S
N1752      C1760   1.358       .  A
N1753      N1754   1.318       .  A
N1753      N1755   1.313       .  A
N1753     Mn1759   2.191       .  S
N1754      C1761   1.351       .  A
N1755      N1756   1.326       .  A
N1755     Mn1781   2.216       .  S
N1756      C1761   1.358       .  A
N1757      N1758   1.319       .  A
N1757     Mn1759   2.191       .  S
N1758      C1760   1.351       .  A
Mn1759    Cl1783   2.530       .  S
C1760      C2488   1.487       .  S
C1761      C2497   1.485       .  S
N1762      N1763   1.321       .  A
N1762      N1768   1.318       .  A
N1762     Mn1770   2.209       .  S
N1763      C1771   1.353       .  A
N1764      N1766   1.319       .  A
N1764      N1765   1.320       .  A
N1764     Mn1782   2.213       .  S
N1765      C1772   1.352       .  A
N1766      N1767   1.324       .  A
N1766     Mn1770   2.221       .  S
N1767      C1772   1.356       .  A
N1768      N1769   1.321       .  A
N1768     Mn1782   2.210       .  S
N1769      C1771   1.354       .  A
Mn1770    Cl1783   2.565       .  S
C1771      C2380   1.480       .  S
C1772      C2404   1.492       .  S
N1773      N1774   1.318       .  A
N1773      N1779   1.317       .  A
N1773     Mn1781   2.198       .  S
N1774      C1784   1.352       .  A
N1775      N1776   1.322       .  A
N1775      N1777   1.317       .  A
N1775     Mn1782   2.216       .  S
N1776      C1785   1.356       .  A
N1777      N1778   1.318       .  A
N1777     Mn1781   2.190       .  S
N1778      C1785   1.350       .  A
N1779      N1780   1.321       .  A
N1779     Mn1782   2.211       .  S
N1780      C1784   1.354       .  A
Mn1781    Cl1783   2.557       .  S
Mn1782    Cl1783   2.537       .  S
C1784      C2389   1.486       .  S
C1785      C2365   1.478       .  S
N1786      N1787   1.323       .  A
N1786      N1792   1.313       .  A
N1786     Mn1815   2.212       .  S
N1787      C1794   1.356       .  A
N1788      N1790   1.313       .  A
N1788      N1789   1.313       .  A
N1788     Mn1804   2.172       .  S
N1789      C1795   1.348       .  A
N1790      N1791   1.327       .  A
N1790     Mn1815   2.221       .  S
N1791      C1795   1.360       .  A
N1792      N1793   1.317       .  A
N1792     Mn1804   2.186       .  S
N1793      C1794   1.352       .  A
C1794      C2428   1.489       .  S
C1795      C2416   1.485       .  S
N1796      N1802   1.314       .  A
N1796      N1797   1.324       .  A
N1796     Mn1826   2.213       .  S
N1797      C1805   1.354       .  A
N1798      N1799   1.316       .  A
N1798      N1800   1.313       .  A
N1798     Mn1804   2.184       .  S
N1799      C1806   1.349       .  A
N1800      N1801   1.326       .  A
N1800     Mn1826   2.217       .  S
N1801      C1806   1.358       .  A
N1802      N1803   1.319       .  A
N1802     Mn1804   2.192       .  S
N1803      C1805   1.350       .  A
Mn1804    Cl1828   2.546       .  S
C1805      C2461   1.473       .  S
C1806      C2476   1.477       .  S
N1807      N1808   1.318       .  A
N1807      N1813   1.318       .  A
N1807     Mn1815   2.195       .  S
N1808      C1816   1.351       .  A
N1809      N1811   1.317       .  A
N1809      N1810   1.322       .  A
N1809     Mn1827   2.219       .  S
N1810      C1817   1.356       .  A
N1811      N1812   1.320       .  A
N1811     Mn1815   2.202       .  S
N1812      C1817   1.352       .  A
N1813      N1814   1.322       .  A
N1813     Mn1827   2.219       .  S
N1814      C1816   1.355       .  A
Mn1815    Cl1828   2.548       .  S
C1816      C2332   1.475       .  S
C1817      C2353   1.488       .  S
N1818      N1819   1.320       .  A
N1818      N1824   1.318       .  A
N1818     Mn1826   2.204       .  S
N1819      C1829   1.352       .  A
N1820      N1821   1.323       .  A
N1820      N1822   1.316       .  A
N1820     Mn1827   2.220       .  S
N1821      C1830   1.357       .  A
N1822      N1823   1.317       .  A
N1822     Mn1826   2.196       .  S
N1823      C1830   1.351       .  A
N1824      N1825   1.321       .  A
N1824     Mn1827   2.217       .  S
N1825      C1829   1.354       .  A
Mn1826    Cl1828   2.549       .  S
Mn1827    Cl1828   2.543       .  S
C1829      C2344   1.483       .  S
C1830      C2317   1.472       .  S
N1831      H1863   1.040   1_554  S
N1831      C2672   1.352   1_554  A
N1831      C1835   1.352       .  A
N1832      C1839   1.352       .  A
N1832      C1840   1.349       .  A
N1833      H1864   1.040   1_554  S
N1833      C2674   1.356   1_554  A
N1833      C1837   1.353       .  A
N1834      C1841   1.350       .  A
N1834      C1842   1.350       .  A
C1835      C1843   1.386       .  A
C1835      C1851   1.412       .  A
C1836      N2667   1.352   1_556  A
C1836      C1852   1.416       .  A
C1836      C1844   1.389       .  A
C1837      C1845   1.387       .  A
C1837      C1854   1.417       .  A
C1838      N2669   1.356   1_546  A
C1838      C1853   1.418       .  A
C1838      C1846   1.387       .  A
C1839      C1851   1.412       .  A
C1839      C1847   1.386       .  A
C1840      C1854   1.411       .  A
C1840      C1848   1.386       .  A
C1841      C1849   1.386       .  A
C1841      C1852   1.412       .  A
C1842      C1850   1.386       .  A
C1842      C1853   1.412       .  A
C1843      C2680   1.372   1_554  A
C1843      H1855   1.083       .  S
C1844      C2679   1.372   1_556  A
C1844      H1856   1.082       .  S
C1845      C2682   1.371   1_554  A
C1845      H1857   1.082       .  S
C1846      C2681   1.372   1_546  A
C1846      H1858   1.082       .  S
C1847      C1848   1.377       .  A
C1847      H1859   1.082       .  S
C1848      H1860   1.082       .  S
C1849      C1850   1.376       .  A
C1849      H1861   1.082       .  S
C1850      H1862   1.082       .  S
C1851      C2272   1.490       .  S
C1852      C2293   1.482       .  S
C1853      C2308   1.490       .  S
C1854      C2284   1.482       .  S
N1865      H1897   1.040       .  S
N1865      C1870   1.353       .  A
N1865      C1869   1.353   1_554  A
N1866      C1873   1.350       .  A
N1866      C1874   1.350       .  A
N1867      H1898   1.040   1_554  S
N1867      C1872   1.352       .  A
N1867      C1871   1.353   1_554  A
N1868      C1875   1.352       .  A
N1868      C1876   1.352       .  A
C1869      C1877   1.388       .  A
C1869      C1885   1.419       .  A
C1870      C1886   1.414       .  A
C1870      C1878   1.386       .  A
C1871      C1879   1.387       .  A
C1871      C1888   1.416       .  A
C1872      C1887   1.415       .  A
C1872      C1880   1.387       .  A
C1873      C1885   1.413       .  A
C1873      C1881   1.387       .  A
C1874      C1888   1.410       .  A
C1874      C1882   1.385       .  A
C1875      C1883   1.385       .  A
C1875      C1886   1.413       .  A
C1876      C1884   1.386       .  A
C1876      C1887   1.414       .  A
C1877      C1878   1.377   1_556  A
C1877      H1889   1.082       .  S
C1878      H1890   1.082       .  S
C1879      C1880   1.377   1_556  A
C1879      H1891   1.083       .  S
C1880      H1892   1.082       .  S
C1881      C1882   1.375       .  A
C1881      H1893   1.082       .  S
C1882      H1894   1.082       .  S
C1883      C1884   1.377       .  A
C1883      H1895   1.082       .  S
C1884      H1896   1.082       .  S
C1885      C2245   1.494       .  S
C1886      C2221   1.489       .  S
C1887      C2233   1.491       .  S
C1888      C2260   1.487       .  S
N1899      N1900   1.324       .  A
N1899      N1905   1.314       .  A
N1899     Mn1928   2.208       .  S
N1900      C1907   1.355       .  A
N1901      N1903   1.313       .  A
N1901     Mn1917   2.184   1_455  S
N1902      C1908   1.347       .  A
N1903     Mn1928   2.216   1_455  S
N1904      C1908   1.355       .  A
N1905      N1906   1.316       .  A
N1905     Mn1917   2.177       .  S
N1906      C1907   1.347       .  A
C1907      C2257   1.467       .  S
C1908      C2248   1.468       .  S
N1909      N1915   1.313       .  A
N1909     Mn1939   2.214   1_455  S
N1910      C1918   1.356       .  A
N1911      N1912   1.316       .  A
N1911      N1913   1.313       .  A
N1911     Mn1917   2.184       .  S
N1912      C1919   1.348       .  A
N1913      N1914   1.326       .  A
N1913     Mn1939   2.227       .  S
N1914      C1919   1.361       .  A
N1915     Mn1917   2.175   1_455  S
N1916      C1918   1.349       .  A
Mn1917    Cl1941   2.543       .  S
C1918      C2296   1.479       .  S
C1919      C2305   1.494       .  S
N1920      N1921   1.319       .  A
N1920      N1926   1.316       .  A
N1921      C1929   1.350       .  A
N1922      N1924   1.318       .  A
N1922      N1923   1.323       .  A
N1922     Mn1940   2.214       .  S
N1923      C1930   1.356       .  A
N1924      N1925   1.317       .  A
N1924     Mn1928   2.196       .  S
N1925      C1930   1.350       .  A
N1926      N1927   1.321       .  A
N1927      C1929   1.355       .  A
Mn1928    Cl1941   2.548       .  S
C1929      C2185   1.475       .  S
C1930      C2212   1.472       .  S
N1931      N1932   1.322       .  A
N1931      N1937   1.320       .  A
N1931     Mn1939   2.207       .  S
N1932      C1942   1.353       .  A
N1933      N1934   1.320       .  A
N1933      N1935   1.317       .  A
N1934      C1943   1.354       .  A
N1935      N1936   1.320       .  A
N1936      C1943   1.353       .  A
N1937      N1938   1.323       .  A
N1937     Mn1940   2.226       .  S
N1938      C1942   1.354       .  A
Mn1939    Cl1941   2.549       .  S
Mn1940    Cl1941   2.538       .  S
C1942      C2200   1.484       .  S
C1943      C2173   1.485       .  S
N1944      H1976   1.038       .  S
N1944      C1949   1.353       .  A
N1944      C1948   1.352       .  A
N1945      C1952   1.350       .  A
N1945      C1953   1.350       .  A
N1946      H1977   1.041       .  S
N1946      C1951   1.352       .  A
N1946      C1950   1.355       .  A
N1947      C1954   1.352       .  A
N1947      C1955   1.350       .  A
C1948      C1956   1.387       .  A
C1948      C1964   1.413       .  A
C1949      C1965   1.415       .  A
C1949      C1957   1.387       .  A
C1950      C1958   1.387       .  A
C1950      C1967   1.417       .  A
C1951      C1966   1.415       .  A
C1951      C1959   1.387       .  A
C1952      C1964   1.410       .  A
C1952      C1960   1.386       .  A
C1953      C1967   1.412       .  A
C1953      C1961   1.387       .  A
C1954      C1962   1.386       .  A
C1954      C1965   1.412       .  A
C1955      C1963   1.386       .  A
C1955      C1966   1.410       .  A
C1956      C1957   1.378       .  A
C1956      H1968   1.082       .  S
C1957      H1969   1.082       .  S
C1958      C1959   1.378       .  A
C1958      H1970   1.082       .  S
C1959      H1971   1.082       .  S
C1960      C1961   1.371       .  A
C1960      H2808   1.082       .  S
C1961      H2809   1.082       .  S
C1962      C1963   1.371       .  A
C1962      H1974   1.082       .  S
C1963      H1975   1.082       .  S
C1964      C2320   1.481       .  S
C1965      C2329   1.490       .  S
C1966      C2188   1.484       .  S
C1967      C2176   1.494       .  S
H1972      C2796   1.082   1_545  S
H1973      C2797   1.082   1_545  S
N1978      H2010   1.046       .  S
N1978      C1983   1.355       .  A
N1978      C1982   1.352       .  A
N1979      C1986   1.351       .  A
N1979      C1987   1.352       .  A
N1980      H2011   1.046       .  S
N1980      C1985   1.351       .  A
N1980      C1984   1.352       .  A
N1981      C1988   1.352       .  A
N1981      C1989   1.351       .  A
C1982      C1990   1.386       .  A
C1982      C1998   1.414       .  A
C1983      C1999   1.417       .  A
C1983      C1991   1.387       .  A
C1984      C1992   1.387       .  A
C1984      C2001   1.413       .  A
C1985      C2000   1.413       .  A
C1985      C1993   1.387       .  A
C1986      C1998   1.414       .  A
C1986      C1994   1.387       .  A
C1987      C2001   1.414       .  A
C1987      C1995   1.386       .  A
C1988      C1996   1.386       .  A
C1988      C1999   1.415       .  A
C1989      C1997   1.387       .  A
C1989      C2000   1.416       .  A
C1990      C1991   1.377       .  A
C1990      H2838   1.082       .  S
C1991      H2839   1.082       .  S
C1992      C1993   1.376       .  A
C1992      H2004   1.082       .  S
C1993      H2005   1.082       .  S
C1994      C1995   1.377       .  A
C1994      H2006   1.082       .  S
C1995      H2007   1.082       .  S
C1996      C1997   1.376       .  A
C1996      H2008   1.082       .  S
C1997      H2009   1.082       .  S
C1998      C2341   1.490       .  S
C1999      C2197   1.500       .  S
C2000      C2209   1.488       .  S
C2001      C2356   1.492       .  S
H2002      C2826   1.082       .  S
H2003      C2827   1.082       .  S
N2012      H2044   1.037       .  S
N2012      C2017   1.354       .  A
N2012      C2016   1.356       .  A
N2013      C2020   1.352       .  A
N2013      C2021   1.351       .  A
N2014      H2045   1.038       .  S
N2014      C2019   1.355       .  A
N2014      C2018   1.353       .  A
N2015      C2022   1.351       .  A
N2015      C2023   1.352       .  A
C2016      C2024   1.387       .  A
C2016      C2032   1.421       .  A
C2017      C2033   1.417       .  A
C2017      C2025   1.387       .  A
C2018      C2026   1.388       .  A
C2018      C2035   1.418       .  A
C2019      C2034   1.416       .  A
C2019      C2027   1.386       .  A
C2020      C2032   1.416       .  A
C2020      C2028   1.387       .  A
C2021      C2035   1.413       .  A
C2021      C2029   1.386       .  A
C2022      C2030   1.388       .  A
C2022      C2033   1.413       .  A
C2023      C2031   1.386       .  A
C2023      C2034   1.413       .  A
C2024      C2025   1.377       .  A
C2024      H2036   1.082       .  S
C2025      H2037   1.082       .  S
C2026      C2027   1.378       .  A
C2026      H2038   1.082       .  S
C2027      H2039   1.082       .  S
C2028      C2029   1.373       .  A
C2028      H2876   1.082       .  S
C2029      H2877   1.082       .  S
C2030      C2031   1.369       .  A
C2030      H2042   1.082       .  S
C2031      H2043   1.082       .  S
C2032      C2152   1.500       .  S
C2033      C2161   1.486       .  S
C2034      C2377   1.493       .  S
C2035      C2368   1.488       .  S
H2040      C2864   1.082       .  S
H2041      C2865   1.082       .  S
N2046      H2078   1.041       .  S
N2046      C2051   1.355       .  A
N2046      C2050   1.354       .  A
N2047      C2054   1.351       .  A
N2047      C2055   1.352       .  A
N2048      H2079   1.042       .  S
N2048      C2053   1.353       .  A
N2048      C2052   1.354       .  A
N2049      C2056   1.353       .  A
N2049      C2057   1.352       .  A
C2050      C2058   1.387       .  A
C2050      C2066   1.418       .  A
C2051      C2067   1.418       .  A
C2051      C2059   1.388       .  A
C2052      C2060   1.385       .  A
C2052      C2069   1.413       .  A
C2053      C2068   1.417       .  A
C2053      C2061   1.388       .  A
C2054      C2066   1.415       .  A
C2054      C2062   1.387       .  A
C2055      C2069   1.413       .  A
C2055      C2063   1.385       .  A
C2056      C2064   1.385       .  A
C2056      C2067   1.415       .  A
C2057      C2065   1.388       .  A
C2057      C2068   1.419       .  A
C2058      C2059   1.373       .  A
C2058      H2906   1.082       .  S
C2059      H2907   1.081       .  S
C2060      C2061   1.376       .  A
C2060      H2072   1.082       .  S
C2061      H2073   1.082       .  S
C2062      C2063   1.376       .  A
C2062      H2074   1.082       .  S
C2063      H2075   1.082       .  S
C2064      C2065   1.375       .  A
C2064      H2076   1.082       .  S
C2065      H2077   1.082       .  S
C2066      C2392   1.494       .  S
C2067      C2125   1.495       .  S
C2068      C2140   1.497       .  S
C2069      C2401   1.494       .  S
H2070      C2894   1.082       .  S
H2071      C2895   1.081       .  S
N2080      N2081   1.328       .  A
N2080      N2086   1.311       .  A
N2080     Mn2109   2.222       .  S
N2081      C2088   1.361       .  A
N2082      N2084   1.313       .  A
N2082     Mn2098   2.191   1_455  S
N2083      C2089   1.350       .  A
N2084     Mn2109   2.216   1_455  S
N2085      C2089   1.359       .  A
N2086      N2087   1.313       .  A
N2086     Mn2098   2.170       .  S
N2087      C2088   1.348       .  A
C2088      C2236   1.492       .  S
C2089      C2224   1.490       .  S
N2090      N2096   1.313       .  A
N2090     Mn2120   2.227   1_455  S
N2091      C2099   1.359       .  A
N2092      N2093   1.313       .  A
N2092      N2094   1.314       .  A
N2092     Mn2098   2.178       .  S
N2093      C2100   1.349       .  A
N2094      N2095   1.326       .  A
N2094     Mn2120   2.218       .  S
N2095      C2100   1.359       .  A
N2096     Mn2098   2.167   1_455  S
N2097      C2099   1.347       .  A
Mn2098    Cl2122   2.533       .  S
C2099      C2269   1.482       .  S
C2100      C2281   1.490       .  S
N2101      N2102   1.318       .  A
N2101      N2107   1.317       .  A
N2102      C2110   1.350       .  A
N2103      N2105   1.318       .  A
N2103      N2104   1.324       .  A
N2103     Mn2121   2.227       .  S
N2104      C2111   1.357       .  A
N2105      N2106   1.317       .  A
N2105     Mn2109   2.195       .  S
N2106      C2111   1.350       .  A
N2107      N2108   1.321       .  A
N2108      C2110   1.355       .  A
Mn2109    Cl2122   2.550       .  S
C2110      C2164   1.471       .  S
C2111      C2137   1.478       .  S
N2112      N2113   1.323       .  A
N2112      N2118   1.318       .  A
N2112     Mn2120   2.215       .  S
N2113      C2123   1.353       .  A
N2114      N2115   1.323       .  A
N2114      N2116   1.318       .  A
N2115      C2124   1.356       .  A
N2116      N2117   1.320       .  A
N2117      C2124   1.352       .  A
N2118      N2119   1.321       .  A
N2118     Mn2121   2.208       .  S
N2119      C2123   1.352       .  A
Mn2120    Cl2122   2.553       .  S
Mn2121    Cl2122   2.540       .  S
C2123      C2128   1.482       .  S
C2124      C2149   1.483       .  S
C2125      C2126   1.403       .  A
C2125      C2130   1.416       .  A
C2126      C2963   1.399   1_545  A
C2126      H2135   1.084       .  S
C2127      C2962   1.399       .  A
C2127      C2128   1.416       .  A
C2127      S2131   1.800       .  S
C2128      C2965   1.402       .  A
C2129      C2964   1.403   1_545  A
C2129      C2130   1.405       .  A
C2129      H2136   1.084   1_545  S
C2130      S2132   1.804       .  S
S2131      H2134   1.406       .  S
S2132      H2133   1.405       .  S
C2137      C2138   1.405       .  A
C2137      C2142   1.410       .  A
C2138      C2139   1.397       .  A
C2138      H2147   1.083       .  S
C2139      C2140   1.414       .  A
C2139      S2143   1.806       .  S
C2140      C2141   1.409       .  A
C2141      C2142   1.403       .  A
C2141      H2148   1.084       .  S
C2142      S2144   1.803       .  S
S2143      H2146   1.406       .  S
S2144      H2145   1.405       .  S
C2149      C2150   1.403       .  A
C2149      C2990   1.419       .  A
C2150      C2987   1.403       .  A
C2150      H2159   1.084       .  S
C2151      C2986   1.403   1_545  A
C2151      C2152   1.417       .  A
C2151      S2991   1.804       .  S
C2152      C2153   1.403       .  A
C2153      C2154   1.401       .  A
C2153      H2160   1.084       .  S
C2154      C2985   1.420   1_545  A
C2154      S2156   1.807       .  S
S2155      C2987   1.804       .  S
S2155      H2994   1.406       .  S
S2156      H2993   1.402   1_545  S
H2157      S2992   1.402       .  S
H2158      S2991   1.407       .  S
C2161      C2162   1.401       .  A
C2161      C2166   1.414       .  A
C2162      C2163   1.395       .  A
C2162      H2171   1.084       .  S
C2163      C2164   1.414       .  A
C2163      S2167   1.802       .  S
C2164      C2165   1.402       .  A
C2165      C2166   1.401       .  A
C2165      H2172   1.084       .  S
C2166      S2168   1.804       .  S
S2167      H2170   1.404       .  S
S2168      H2169   1.405       .  S
C2173      C2174   1.407   1_545  A
C2173      C2178   1.418       .  A
C2174      C3011   1.404       .  A
C2174      H2183   1.084       .  S
C2175      C3010   1.402       .  A
C2175      C2176   1.414       .  A
C2175      S2179   1.804       .  S
C2176      C2177   1.404       .  A
C2177      C3014   1.396       .  A
C2177      H2184   1.084       .  S
C2178      C3013   1.396   1_545  A
S2179      H2182   1.405       .  S
S2180      H2181   1.401       .  S
C2185      C2186   1.404       .  A
C2185      C2190   1.414       .  A
C2186      C2187   1.401       .  A
C2186      H2195   1.084       .  S
C2187      C2188   1.411       .  A
C2187      S2191   1.803       .  S
C2188      C2189   1.401       .  A
C2189      C2190   1.397       .  A
C2189      H2196   1.084       .  S
C2190      S2192   1.799       .  S
S2191      H2194   1.406       .  S
C2197      C2198   1.404       .  A
C2197      C2202   1.414       .  A
C2198      C2199   1.403       .  A
C2198      H2207   1.084       .  S
C2199      C3036   1.418       .  A
C2199      S2203   1.807       .  S
C2200      C3035   1.419   1_545  A
C2200      C2201   1.403       .  A
C2201      C3038   1.408   1_545  A
C2201      H2208   1.083       .  S
C2202      C3037   1.407       .  A
C2202      S2204   1.807       .  S
S2203      H3042   1.401       .  S
S2204      H2205   1.406       .  S
H2206      S3039   1.399   1_545  S
C2209      C2210   1.407       .  A
C2209      C2214   1.411       .  A
C2210      C2211   1.402       .  A
C2210      H2219   1.084       .  S
C2211      C2212   1.410       .  A
C2211      S2215   1.805       .  S
C2212      C2213   1.405       .  A
C2213      C2214   1.396       .  A
C2213      H2220   1.084       .  S
C2214      S2216   1.805       .  S
S2215      H2218   1.404       .  S
S2216      H2217   1.406       .  S
C2221      C2222   1.399       .  A
C2221      C2226   1.413       .  A
C2222      C2223   1.397       .  A
C2222      H2231   1.084       .  S
C2223      C2224   1.420       .  A
C2223      S2227   1.803       .  S
C2224      C2225   1.408       .  A
C2225      C2226   1.406       .  A
C2225      H2232   1.083       .  S
C2226      S2228   1.803       .  S
S2227      H2230   1.408       .  S
S2228      H2229   1.404       .  S
C2233      C2234   1.406       .  A
C2233      C2238   1.410       .  A
C2234      C2235   1.409       .  A
C2234      H2243   1.083       .  S
C2235      C2236   1.418       .  A
C2235      S2239   1.799       .  S
C2236      C2237   1.407       .  A
C2237      C2238   1.391       .  A
C2237      H2244   1.083       .  S
C2238      S2240   1.805       .  S
S2239      H2242   1.408       .  S
S2240      H2241   1.406       .  S
C2245      C2246   1.405       .  A
C2245      C2250   1.417       .  A
C2246      C2247   1.399       .  A
C2246      H2255   1.084       .  S
C2247      C2248   1.411       .  A
C2247      S2251   1.804       .  S
C2248      C2249   1.399       .  A
C2249      C2250   1.400       .  A
C2249      H2256   1.084       .  S
C2250      S2252   1.804       .  S
S2251      H2254   1.407       .  S
S2252      H2253   1.406       .  S
C2257      C2258   1.399       .  A
C2257      C2262   1.412       .  A
C2258      C2259   1.399       .  A
C2258      H2267   1.084       .  S
C2259      C2260   1.415       .  A
C2259      S2263   1.803       .  S
C2260      C2261   1.403       .  A
C2261      C2262   1.399       .  A
C2261      H2268   1.084       .  S
C2262      S2264   1.806       .  S
S2263      H2266   1.405       .  S
S2264      H2265   1.406       .  S
C2269      C2270   1.406       .  A
C2269      C2274   1.416       .  A
C2270      C2271   1.406       .  A
C2270      H3115   1.083       .  S
C2271      C2272   1.414       .  A
C2271      S3111   1.802       .  S
C2272      C2273   1.401       .  A
C2273      C2274   1.393       .  A
C2273      H2280   1.084       .  S
C2274      S2276   1.804       .  S
S2275      C3107   1.804   1_545  S
S2275      H2278   1.404       .  S
S2276      H2277   1.408       .  S
H2279      C3106   1.083       .  S
C2281      C2282   1.410       .  A
C2281      C2286   1.418       .  A
C2282      C2283   1.392       .  A
C2282      H2291   1.083       .  S
C2283      C2284   1.406       .  A
C2283      S2287   1.804       .  S
C2284      C2285   1.403       .  A
C2285      C2286   1.404       .  A
C2285      H3128   1.084       .  S
C2286      S3124   1.799       .  S
S2287      H2290   1.405       .  S
S2288      C3122   1.799       .  S
S2288      H2289   1.408       .  S
H2292      C3121   1.084       .  S
C2293      C2294   1.401       .  A
C2293      C2298   1.410       .  A
C2294      C2295   1.397       .  A
C2294      H2303   1.084   1_545  S
C2295      C2296   1.413       .  A
C2295      S2299   1.801   1_545  S
C2296      C2297   1.408       .  A
C2297      C2298   1.398       .  A
C2297      H2304   1.083       .  S
C2298      S2300   1.805       .  S
S2299      H2302   1.408   1_565  S
S2300      H2301   1.405       .  S
C2305      C2306   1.409       .  A
C2305      C2310   1.422       .  A
C2306      C2307   1.406       .  A
C2306      H2315   1.083   1_545  S
C2307      C2308   1.413       .  A
C2307      S2311   1.804   1_545  S
C2308      C2309   1.398       .  A
C2309      C2310   1.395       .  A
C2309      H2316   1.085       .  S
C2310      S2312   1.800       .  S
S2311      H2314   1.403       .  S
S2312      H2313   1.407       .  S
C2317      C2318   1.404   1_545  A
C2317      C3158   1.411       .  A
C2318      C3155   1.395       .  A
C2318      H2327   1.085   1_565  S
C2319      C3154   1.395       .  A
C2319      C2320   1.410       .  A
C2319      S2323   1.806       .  S
C2320      C2321   1.405       .  A
C2321      C2322   1.401       .  A
C2321      H2328   1.084       .  S
C2322      C3153   1.410       .  A
C2322      S2324   1.804       .  S
S2323      H2326   1.404       .  S
S2324      H3161   1.404       .  S
H2325      S3160   1.405       .  S
C2329      C2330   1.402       .  A
C2329      C2334   1.416       .  A
C2330      C2331   1.402       .  A
C2330      H2339   1.083       .  S
C2331      C2332   1.414       .  A
C2331      S2335   1.809       .  S
C2332      C2333   1.400       .  A
C2333      C2334   1.402       .  A
C2333      H2340   1.084       .  S
C2334      S2336   1.804       .  S
S2335      H2338   1.407       .  S
S2336      H2337   1.405       .  S
C2341      C2342   1.402       .  A
C2341      C2346   1.409       .  A
C2342      C2343   1.401       .  A
C2342      H2351   1.084       .  S
C2343      C3180   1.416       .  A
C2343      S2347   1.799       .  S
C2344      C3179   1.416       .  A
C2344      C2345   1.405   1_545  A
C2345      C3182   1.406       .  A
C2345      H2352   1.083       .  S
C2346      C3181   1.406       .  A
C2346      S3184   1.806       .  S
S2347      H3186   1.407       .  S
S2348      C3182   1.806       .  S
S2348      H3185   1.407       .  S
H2349      S3184   1.406       .  S
H2350      S3183   1.407       .  S
C2353      C2354   1.407       .  A
C2353      C2358   1.417       .  A
C2354      C2355   1.403       .  A
C2354      H2363   1.084       .  S
C2355      C2356   1.412       .  A
C2355      S2359   1.804       .  S
C2356      C2357   1.402       .  A
C2357      C2358   1.402       .  A
C2357      H2364   1.083       .  S
C2358      S2360   1.808       .  S
S2359      H2362   1.405       .  S
S2360      H2361   1.407       .  S
C2365      C2366   1.405       .  A
C2365      C2370   1.415       .  A
C2366      C3203   1.400       .  A
C2366      H2375   1.084       .  S
C2367      C3202   1.401       .  A
C2367      C2368   1.412       .  A
C2367      S2371   1.804       .  S
C2368      C2369   1.402       .  A
C2369      C3206   1.398   1_545  A
C2369      H2376   1.084       .  S
C2370      C3205   1.397       .  A
C2370      S2372   1.801       .  S
S2371      H2374   1.405       .  S
S2372      H2373   1.408       .  S
C2377      C2378   1.404       .  A
C2377      C2382   1.415       .  A
C2378      C2379   1.402       .  A
C2378      H2387   1.084       .  S
C2379      C2380   1.413       .  A
C2379      S2383   1.803       .  S
C2380      C2381   1.405       .  A
C2381      C2382   1.400       .  A
C2381      H2388   1.084       .  S
C2382      S2384   1.805       .  S
S2383      H2386   1.406       .  S
S2384      H2385   1.406       .  S
C2389      C3226   1.406       .  A
C2389      C2394   1.417       .  A
C2390      C3225   1.405   1_545  A
C2390      C2391   1.400       .  A
C2390      H2399   1.084       .  S
C2391      C2392   1.415       .  A
C2391      S2395   1.805       .  S
C2392      C2393   1.404       .  A
C2393      C3230   1.397   1_545  A
C2393      H2400   1.084       .  S
C2394      C3229   1.398       .  A
C2394      S2396   1.799       .  S
S2395      H2398   1.406       .  S
S2396      H2397   1.408       .  S
C2401      C2402   1.401       .  A
C2401      C2406   1.413       .  A
C2402      C2403   1.400       .  A
C2402      H2411   1.084       .  S
C2403      C2404   1.420       .  A
C2403      S2407   1.800       .  S
C2404      C2405   1.406       .  A
C2405      C2406   1.405       .  A
C2405      H2412   1.084       .  S
C2406      S2408   1.803       .  S
S2407      H2410   1.408       .  S
S2408      H2409   1.406       .  S
C2413      C2414   1.406       .  A
C2413      C2418   1.407       .  A
C2414      C2415   1.406       .  A
C2414      H2423   1.084       .  S
C2415      C2416   1.415       .  A
C2415      S2419   1.800       .  S
C2416      C2417   1.407       .  A
C2417      C2418   1.393       .  A
C2417      H2424   1.083       .  S
C2418      S2420   1.805       .  S
S2419      H2422   1.407       .  S
S2420      H2421   1.403       .  S
C2425      C2426   1.402       .  A
C2425      C2430   1.409       .  A
C2426      C2427   1.403       .  A
C2426      H2435   1.084       .  S
C2427      C2428   1.419       .  A
C2427      S2431   1.800       .  S
C2428      C2429   1.408       .  A
C2429      C2430   1.395       .  A
C2429      H2436   1.084       .  S
C2430      S2432   1.805       .  S
S2431      H2434   1.407       .  S
S2432      H2433   1.406       .  S
C2437      C2438   1.408       .  A
C2437      C2442   1.422       .  A
C2438      C2439   1.407       .  A
C2438      H2447   1.083       .  S
C2439      C2440   1.413       .  A
C2439      S2443   1.803       .  S
C2440      C2441   1.398       .  A
C2441      C2442   1.394       .  A
C2441      H2448   1.085       .  S
C2442      S2444   1.803       .  S
S2443      H2446   1.405       .  S
S2444      H2445   1.407       .  S
C2449      C2450   1.398       .  A
C2449      C2454   1.414       .  A
C2450      C2451   1.394       .  A
C2450      H2459   1.085       .  S
C2451      C2452   1.423       .  A
C2451      S2455   1.804       .  S
C2452      C2453   1.408       .  A
C2453      C2454   1.407       .  A
C2453      H2460   1.083       .  S
C2454      S2456   1.805       .  S
S2455      H2458   1.407       .  S
S2456      H2457   1.404       .  S
C2461      C2462   1.401       .  A
C2461      C2466   1.412       .  A
C2462      C2463   1.401       .  A
C2462      H2471   1.084   1_545  S
C2463      C2464   1.415       .  A
C2463      S3303   1.804   1_545  S
C2464      C2465   1.403       .  A
C2465      C2466   1.400       .  A
C2465      H2472   1.084       .  S
C2466      S2468   1.803       .  S
S2467      C3299   1.805       .  S
S2467      H2470   1.406       .  S
S2468      H2469   1.405       .  S
C2473      C2474   1.406   1_545  A
C2473      C2478   1.413       .  A
C2474      C2475   1.404   1_565  A
C2474      H3319   1.084       .  S
C2475      C2476   1.412       .  A
C2475      S3315   1.802   1_545  S
C2476      C2477   1.403       .  A
C2477      C2478   1.399       .  A
C2477      H2484   1.084       .  S
C2478      S2480   1.803       .  S
S2479      C3311   1.801       .  S
S2479      H3318   1.404       .  S
S2480      H2481   1.404       .  S
H2482      S3315   1.403       .  S
H2483      C3310   1.084       .  S
C2485      C2486   1.401       .  A
C2485      C2490   1.415       .  A
C2486      C2487   1.399       .  A
C2486      H2495   1.084       .  S
C2487      C2488   1.416       .  A
C2487      S2491   1.802       .  S
C2488      C2489   1.405       .  A
C2489      C2490   1.407       .  A
C2489      H3332   1.083       .  S
C2490      S3328   1.804       .  S
S2491      H2494   1.407       .  S
S2492      C3326   1.803       .  S
S2492      H2493   1.405       .  S
H2496      C3325   1.083       .  S
C2497      C2498   1.405       .  A
C2497      C2502   1.413       .  A
C2498      C2499   1.407       .  A
C2498      H2507   1.083       .  S
C2499      C2500   1.416       .  A
C2499      S3339   1.804       .  S
C2500      C2501   1.401       .  A
C2501      C2502   1.399       .  A
C2501      H2508   1.083       .  S
C2502      S2504   1.806       .  S
S2503      C3335   1.803       .  S
S2503      H2506   1.406       .  S
S2504      H2505   1.407       .  S
N2509      H2541   1.040       .  S
N2509      C2513   1.355       .  A
N2510      C2518   1.354       .  A
N2511      H2542   1.039       .  S
N2511      C2516   1.354       .  A
N2512      C2520   1.351       .  A
C2513      C2521   1.388       .  A
C2513      C2529   1.419       .  A
C2514      C2530   1.421       .  A
C2514      C2522   1.387       .  A
C2515      C2523   1.385       .  A
C2515      C2532   1.414       .  A
C2516      C2531   1.420       .  A
C2516      C2524   1.388       .  A
C2517      C2529   1.417   1_565  A
C2517      C2525   1.387       .  A
C2518      C2532   1.414       .  A
C2518      C2526   1.385   1_545  A
C2519      C2527   1.386       .  A
C2519      C2530   1.415       .  A
C2520      C2528   1.387       .  A
C2520      C2531   1.416       .  A
C2521      H2533   1.081       .  S
C2522      H2534   1.082       .  S
C2523      H2535   1.081       .  S
C2524      H2536   1.082       .  S
C2525      H2537   1.082       .  S
C2526      H2538   1.082       .  S
C2527      H2539   1.082       .  S
C2528      H2540   1.082       .  S
C2529      C3336   1.492   1_545  S
C2530      C3309   1.493       .  S
C2531      C3300   1.492       .  S
C2532      C3321   1.494   1_545  S
N2543      H2575   1.038       .  S
N2543      C2548   1.353       .  A
N2543      C2547   1.354       .  A
N2544      C2552   1.349       .  A
N2545      H2576   1.036       .  S
N2545      C2550   1.354       .  A
N2545      C2549   1.355       .  A
N2546      C2554   1.351       .  A
C2547      C2555   1.388       .  A
C2547      C2563   1.418       .  A
C2548      C2564   1.415       .  A
C2548      C2556   1.386       .  A
C2549      C2557   1.389       .  A
C2549      C2566   1.420       .  A
C2550      C2565   1.416       .  A
C2550      C2558   1.386       .  A
C2551      C2563   1.412       .  A
C2551      C2559   1.386       .  A
C2552      C2566   1.414       .  A
C2552      C2560   1.387       .  A
C2553      C2561   1.386       .  A
C2553      C2564   1.412       .  A
C2554      C2562   1.385       .  A
C2554      C2565   1.413       .  A
C2555      C2556   1.374       .  A
C2555      H2567   1.082       .  S
C2556      H2568   1.083       .  S
C2557      C2558   1.370       .  A
C2557      H2569   1.081       .  S
C2558      H2570   1.083       .  S
C2559      H2571   1.082       .  S
C2560      H2572   1.082       .  S
C2561      H2573   1.082       .  S
C2562      H2574   1.082       .  S
C2563      C3249   1.488       .  S
C2564      C3276   1.490       .  S
C2565      C3285   1.491       .  S
C2566      C3261   1.487       .  S
N2577      N2578   1.327       .  A
N2577      N2583   1.315       .  A
N2577     Mn2606   2.229       .  S
N2578      C2585   1.361       .  A
N2579      N2581   1.314       .  A
N2579      N2580   1.314       .  A
N2579     Mn2595   2.174       .  S
N2580      C2586   1.346       .  A
N2581      N2582   1.327       .  A
N2581     Mn2606   2.230       .  S
N2582      C2586   1.361       .  A
N2583      N2584   1.315       .  A
N2583     Mn2595   2.185       .  S
N2584      C2585   1.348       .  A
C2585      C3288   1.492       .  S
C2586      C3273   1.490       .  S
N2587      N2593   1.313       .  A
N2587      N2588   1.327       .  A
N2587     Mn2617   2.224       .  S
N2588      C2596   1.359       .  A
N2589      N2590   1.317       .  A
N2589      N2591   1.313       .  A
N2589     Mn2595   2.189       .  S
N2590      C2597   1.350       .  A
N2591      N2592   1.327       .  A
N2591     Mn2617   2.220       .  S
N2592      C2597   1.358       .  A
N2593      N2594   1.319       .  A
N2593     Mn2595   2.192       .  S
N2594      C2596   1.351       .  A
Mn2595    Cl2619   2.530       .  S
C2596      C3324   1.489       .  S
C2597      C3333   1.487       .  S
N2598      N2599   1.321       .  A
N2598      N2604   1.318       .  A
N2598     Mn2606   2.209       .  S
N2599      C2607   1.353       .  A
N2600      N2602   1.318       .  A
N2600      N2601   1.320       .  A
N2600     Mn2618   2.212       .  S
N2601      C2608   1.352       .  A
N2602      N2603   1.324       .  A
N2602     Mn2606   2.218       .  S
N2603      C2608   1.356       .  A
N2604      N2605   1.321       .  A
N2604     Mn2618   2.210       .  S
N2605      C2607   1.354       .  A
Mn2606    Cl2619   2.564       .  S
C2607      C3216   1.481       .  S
C2608      C3240   1.492       .  S
N2609      N2610   1.320       .  A
N2609      N2615   1.317       .  A
N2609     Mn2617   2.202       .  S
N2610      C2620   1.354       .  A
N2611      N2612   1.322       .  A
N2611      N2613   1.317       .  A
N2611     Mn2618   2.217       .  S
N2612      C2621   1.356       .  A
N2613      N2614   1.318       .  A
N2613     Mn2617   2.193       .  S
N2614      C2621   1.350       .  A
N2615      N2616   1.319       .  A
N2615     Mn2618   2.206       .  S
N2616      C2620   1.353       .  A
Mn2617    Cl2619   2.560       .  S
Mn2618    Cl2619   2.534       .  S
C2620      C3225   1.484       .  S
C2621      C3201   1.480       .  S
N2622      N2623   1.323       .  A
N2622      N2628   1.313       .  A
N2622     Mn2651   2.211       .  S
N2623      C2630   1.356       .  A
N2624      N2626   1.313       .  A
N2624      N2625   1.314       .  A
N2624     Mn2640   2.178       .  S
N2625      C2631   1.349       .  A
N2626      N2627   1.327       .  A
N2626     Mn2651   2.220       .  S
N2627      C2631   1.360       .  A
N2628      N2629   1.317       .  A
N2628     Mn2640   2.185       .  S
N2629      C2630   1.352       .  A
C2630      C3264   1.489       .  S
C2631      C3252   1.487       .  S
N2632      N2638   1.315       .  A
N2632      N2633   1.324       .  A
N2632     Mn2662   2.219       .  S
N2633      C2641   1.355       .  A
N2634      N2635   1.316       .  A
N2634      N2636   1.314       .  A
N2634     Mn2640   2.185       .  S
N2635      C2642   1.349       .  A
N2636      N2637   1.326       .  A
N2636     Mn2662   2.217       .  S
N2637      C2642   1.358       .  A
N2638      N2639   1.319       .  A
N2638     Mn2640   2.190       .  S
N2639      C2641   1.350       .  A
Mn2640    Cl2664   2.544       .  S
C2641      C3297   1.473       .  S
C2642      C3312   1.476       .  S
N2643      N2644   1.318       .  A
N2643      N2649   1.317       .  A
N2643     Mn2651   2.193       .  S
N2644      C2652   1.350       .  A
N2645      N2647   1.317       .  A
N2645      N2646   1.320       .  A
N2645     Mn2663   2.210       .  S
N2646      C2653   1.354       .  A
N2647      N2648   1.320       .  A
N2647     Mn2651   2.203       .  S
N2648      C2653   1.353       .  A
N2649      N2650   1.323       .  A
N2649     Mn2663   2.223       .  S
N2650      C2652   1.356       .  A
Mn2651    Cl2664   2.550       .  S
C2652      C3168   1.476       .  S
C2653      C3189   1.487       .  S
N2654      N2655   1.321       .  A
N2654      N2660   1.318       .  A
N2654     Mn2662   2.208       .  S
N2655      C2665   1.353       .  A
N2656      N2657   1.321       .  A
N2656      N2658   1.317       .  A
N2656     Mn2663   2.210       .  S
N2657      C2666   1.355       .  A
N2658      N2659   1.318       .  A
N2658     Mn2662   2.200       .  S
N2659      C2666   1.352       .  A
N2660      N2661   1.322       .  A
N2660     Mn2663   2.220       .  S
N2661      C2665   1.354       .  A
Mn2662    Cl2664   2.551       .  S
Mn2663    Cl2664   2.540       .  S
C2665      C3180   1.485       .  S
C2666      C3153   1.469       .  S
N2667      H2699   1.040   1_544  S
N2667      C2671   1.353       .  A
N2668      C2675   1.351       .  A
N2668      C2676   1.349       .  A
N2669      H2700   1.041   1_554  S
N2669      C2673   1.353       .  A
N2670      C2677   1.349       .  A
N2670      C2678   1.350       .  A
C2671      C2679   1.385       .  A
C2671      C2687   1.414   1_545  A
C2672      C2688   1.414       .  A
C2672      C2680   1.388       .  A
C2673      C2681   1.388       .  A
C2673      C2690   1.417       .  A
C2674      C2689   1.418       .  A
C2674      C2682   1.387       .  A
C2675      C2687   1.412       .  A
C2675      C2683   1.386       .  A
C2676      C2690   1.410       .  A
C2676      C2684   1.386       .  A
C2677      C2685   1.386       .  A
C2677      C2688   1.411       .  A
C2678      C2686   1.386       .  A
C2678      C2689   1.412       .  A
C2679      H2691   1.082       .  S
C2680      H2692   1.082       .  S
C2681      H2693   1.082       .  S
C2682      H2694   1.082       .  S
C2683      C2684   1.376       .  A
C2683      H2695   1.082       .  S
C2684      H2696   1.082       .  S
C2685      C2686   1.376       .  A
C2685      H2697   1.082       .  S
C2686      H2698   1.082       .  S
C2687      C3108   1.491       .  S
C2688      C3129   1.482       .  S
C2689      C3144   1.488       .  S
C2690      C3120   1.482       .  S
N2701      H2733   1.039       .  S
N2701      C2706   1.352   1_556  A
N2701      C2705   1.354       .  A
N2702      C2709   1.348       .  A
N2702      C2710   1.348       .  A
N2703      H2734   1.040       .  S
N2703      C2708   1.352   1_556  A
N2703      C2707   1.352       .  A
N2704      C2711   1.351       .  A
N2704      C2712   1.353       .  A
C2705      C2713   1.388       .  A
C2705      C2721   1.418       .  A
C2706      C2722   1.414       .  A
C2706      C2714   1.386       .  A
C2707      C2715   1.387       .  A
C2707      C2724   1.414       .  A
C2708      C2723   1.415       .  A
C2708      C2716   1.387       .  A
C2709      C2721   1.409       .  A
C2709      C2717   1.387       .  A
C2710      C2724   1.407       .  A
C2710      C2718   1.385       .  A
C2711      C2719   1.386       .  A
C2711      C2722   1.414       .  A
C2712      C2720   1.386       .  A
C2712      C2723   1.415       .  A
C2713      C2714   1.377   1_556  A
C2713      H2725   1.082       .  S
C2714      H2726   1.082       .  S
C2715      C2716   1.377   1_556  A
C2715      H2727   1.083       .  S
C2716      H2728   1.082       .  S
C2717      C2718   1.374       .  A
C2717      H2729   1.082       .  S
C2718      H2730   1.082       .  S
C2719      C2720   1.378       .  A
C2719      H2731   1.082       .  S
C2720      H2732   1.082       .  S
C2721      C3081   1.490       .  S
C2722      C3057   1.487       .  S
C2723      C3069   1.494       .  S
C2724      C3096   1.481       .  S
N2735      N2736   1.324       .  A
N2735      N2741   1.314       .  A
N2735     Mn2764   2.207       .  S
N2736      C2743   1.354       .  A
N2737      N2739   1.314       .  A
N2737     Mn2753   2.184   1_455  S
N2738      C2744   1.347       .  A
N2739     Mn2764   2.210   1_455  S
N2740      C2744   1.354       .  A
N2741      N2742   1.316       .  A
N2741     Mn2753   2.178       .  S
N2742      C2743   1.347       .  A
C2743      C3093   1.465       .  S
C2744      C3084   1.464       .  S
N2745      N2751   1.313       .  A
N2745     Mn2775   2.216   1_455  S
N2746      C2754   1.356       .  A
N2747      N2748   1.315       .  A
N2747      N2749   1.313       .  A
N2747     Mn2753   2.181       .  S
N2748      C2755   1.347       .  A
N2749      N2750   1.327       .  A
N2749     Mn2775   2.232       .  S
N2750      C2755   1.362       .  A
N2751     Mn2753   2.175   1_455  S
N2752      C2754   1.350       .  A
Mn2753    Cl2777   2.536       .  S
C2754      C3132   1.480       .  S
C2755      C3141   1.495       .  S
N2756      N2757   1.319       .  A
N2756      N2762   1.316       .  A
N2757      C2765   1.352       .  A
N2758      N2760   1.317       .  A
N2758      N2759   1.324       .  A
N2758     Mn2776   2.221       .  S
N2759      C2766   1.357       .  A
N2760      N2761   1.317       .  A
N2760     Mn2764   2.197       .  S
N2761      C2766   1.351       .  A
N2762      N2763   1.321       .  A
N2763      C2765   1.354       .  A
Mn2764    Cl2777   2.552       .  S
C2765      C3021   1.480       .  S
C2766      C3048   1.475       .  S
N2767      N2768   1.322       .  A
N2767      N2773   1.320       .  A
N2767     Mn2775   2.208       .  S
N2768      C2778   1.353       .  A
N2769      N2770   1.319       .  A
N2769      N2771   1.316       .  A
N2770      C2779   1.353       .  A
N2771      N2772   1.319       .  A
N2772      C2779   1.353       .  A
N2773      N2774   1.323       .  A
N2773     Mn2776   2.228       .  S
N2774      C2778   1.355       .  A
Mn2775    Cl2777   2.554       .  S
Mn2776    Cl2777   2.538       .  S
C2778      C3036   1.483       .  S
C2779      C3009   1.482       .  S
N2780      H2812   1.039       .  S
N2780      C2785   1.353       .  A
N2780      C2784   1.352       .  A
N2781      C2788   1.351       .  A
N2781      C2789   1.351       .  A
N2782      H2813   1.041       .  S
N2782      C2787   1.353       .  A
N2782      C2786   1.355       .  A
N2783      C2790   1.352       .  A
N2783      C2791   1.350       .  A
C2784      C2792   1.387       .  A
C2784      C2800   1.414       .  A
C2785      C2801   1.414       .  A
C2785      C2793   1.386       .  A
C2786      C2794   1.387       .  A
C2786      C2803   1.418       .  A
C2787      C2802   1.417       .  A
C2787      C2795   1.387       .  A
C2788      C2800   1.411       .  A
C2788      C2796   1.385       .  A
C2789      C2803   1.413       .  A
C2789      C2797   1.387       .  A
C2790      C2798   1.385       .  A
C2790      C2801   1.412       .  A
C2791      C2799   1.387       .  A
C2791      C2802   1.413       .  A
C2792      C2793   1.377       .  A
C2792      H2804   1.082       .  S
C2793      H2805   1.082       .  S
C2794      C2795   1.379       .  A
C2794      H2806   1.082       .  S
C2795      H2807   1.082       .  S
C2796      C2797   1.372       .  A
C2798      C2799   1.372       .  A
C2798      H2810   1.082       .  S
C2799      H2811   1.082       .  S
C2800      C3156   1.484       .  S
C2801      C3165   1.489       .  S
C2802      C3024   1.489       .  S
C2803      C3012   1.496       .  S
N2814      H2846   1.051       .  S
N2814      C2819   1.355       .  A
N2814      C2818   1.352       .  A
N2815      C2822   1.351       .  A
N2815      C2823   1.352       .  A
N2816      H2847   1.050       .  S
N2816      C2821   1.351       .  A
N2816      C2820   1.351       .  A
N2817      C2824   1.352       .  A
N2817      C2825   1.351       .  A
C2818      C2826   1.386       .  A
C2818      C2834   1.415       .  A
C2819      C2835   1.419       .  A
C2819      C2827   1.387       .  A
C2820      C2828   1.387       .  A
C2820      C2837   1.413       .  A
C2821      C2836   1.413       .  A
C2821      C2829   1.387       .  A
C2822      C2834   1.414       .  A
C2822      C2830   1.387       .  A
C2823      C2837   1.415       .  A
C2823      C2831   1.386       .  A
C2824      C2832   1.386       .  A
C2824      C2835   1.416       .  A
C2825      C2833   1.386       .  A
C2825      C2836   1.415       .  A
C2826      C2827   1.378       .  A
C2828      C2829   1.376       .  A
C2828      H2840   1.082       .  S
C2829      H2841   1.082       .  S
C2830      C2831   1.377       .  A
C2830      H2842   1.082       .  S
C2831      H2843   1.082       .  S
C2832      C2833   1.376       .  A
C2832      H2844   1.082       .  S
C2833      H2845   1.082       .  S
C2834      C3177   1.490       .  S
C2835      C3033   1.501       .  S
C2836      C3045   1.489       .  S
C2837      C3192   1.492       .  S
N2848      H2880   1.037       .  S
N2848      C2853   1.352       .  A
N2848      C2852   1.356       .  A
N2849      C2856   1.352       .  A
N2849      C2857   1.350       .  A
N2850      H2881   1.039       .  S
N2850      C2855   1.355       .  A
N2850      C2854   1.352       .  A
N2851      C2858   1.350       .  A
N2851      C2859   1.352       .  A
C2852      C2860   1.387       .  A
C2852      C2868   1.420       .  A
C2853      C2869   1.416       .  A
C2853      C2861   1.387       .  A
C2854      C2862   1.388       .  A
C2854      C2871   1.417       .  A
C2855      C2870   1.415       .  A
C2855      C2863   1.386       .  A
C2856      C2868   1.415       .  A
C2856      C2864   1.386       .  A
C2857      C2871   1.412       .  A
C2857      C2865   1.386       .  A
C2858      C2866   1.388       .  A
C2858      C2869   1.413       .  A
C2859      C2867   1.385       .  A
C2859      C2870   1.412       .  A
C2860      C2861   1.376       .  A
C2860      H2872   1.082       .  S
C2861      H2873   1.082       .  S
C2862      C2863   1.378       .  A
C2862      H2874   1.082       .  S
C2863      H2875   1.082       .  S
C2864      C2865   1.373       .  A
C2866      C2867   1.369       .  A
C2866      H2878   1.082       .  S
C2867      H2879   1.082       .  S
C2868      C2988   1.501       .  S
C2869      C2997   1.483       .  S
C2870      C3213   1.493       .  S
C2871      C3204   1.485       .  S
N2882      H2914   1.040       .  S
N2882      C2887   1.355       .  A
N2882      C2886   1.353       .  A
N2883      C2890   1.350       .  A
N2883      C2891   1.352       .  A
N2884      H2915   1.041       .  S
N2884      C2889   1.352       .  A
N2884      C2888   1.353       .  A
N2885      C2892   1.353       .  A
N2885      C2893   1.351       .  A
C2886      C2894   1.387       .  A
C2886      C2902   1.417       .  A
C2887      C2903   1.417       .  A
C2887      C2895   1.387       .  A
C2888      C2896   1.386       .  A
C2888      C2905   1.414       .  A
C2889      C2904   1.416       .  A
C2889      C2897   1.388       .  A
C2890      C2902   1.415       .  A
C2890      C2898   1.387       .  A
C2891      C2905   1.413       .  A
C2891      C2899   1.385       .  A
C2892      C2900   1.385       .  A
C2892      C2903   1.414       .  A
C2893      C2901   1.387       .  A
C2893      C2904   1.417       .  A
C2894      C2895   1.373       .  A
C2896      C2897   1.377       .  A
C2896      H2908   1.082       .  S
C2897      H2909   1.082       .  S
C2898      C2899   1.377       .  A
C2898      H2910   1.082       .  S
C2899      H2911   1.082       .  S
C2900      C2901   1.374       .  A
C2900      H2912   1.082       .  S
C2901      H2913   1.082       .  S
C2902      C3228   1.494       .  S
C2903      C2961   1.493       .  S
C2904      C2976   1.493       .  S
C2905      C3237   1.493       .  S
N2916      N2917   1.329       .  A
N2916      N2922   1.311       .  A
N2916     Mn2945   2.223       .  S
N2917      C2924   1.362       .  A
N2918      N2920   1.313       .  A
N2918     Mn2934   2.181   1_455  S
N2919      C2925   1.349       .  A
N2920     Mn2945   2.212   1_455  S
N2921      C2925   1.361       .  A
N2922      N2923   1.313       .  A
N2922     Mn2934   2.172       .  S
N2923      C2924   1.348       .  A
C2924      C3072   1.493       .  S
C2925      C3060   1.491       .  S
N2926      N2932   1.312       .  A
N2926     Mn2956   2.231   1_455  S
N2927      C2935   1.360       .  A
N2928      N2929   1.314       .  A
N2928      N2930   1.314       .  A
N2928     Mn2934   2.175       .  S
N2929      C2936   1.349       .  A
N2930      N2931   1.325       .  A
N2930     Mn2956   2.220       .  S
N2931      C2936   1.359       .  A
N2932     Mn2934   2.167   1_455  S
N2933      C2935   1.346       .  A
Mn2934    Cl2958   2.533       .  S
C2935      C3105   1.483       .  S
C2936      C3117   1.489       .  S
N2937      N2938   1.317       .  A
N2937      N2943   1.318       .  A
N2938      C2946   1.349       .  A
N2939      N2941   1.318       .  A
N2939      N2940   1.323       .  A
N2939     Mn2957   2.227       .  S
N2940      C2947   1.357       .  A
N2941      N2942   1.317       .  A
N2941     Mn2945   2.192       .  S
N2942      C2947   1.350       .  A
N2943      N2944   1.321       .  A
N2944      C2946   1.355       .  A
Mn2945    Cl2958   2.550       .  S
C2946      C3000   1.469       .  S
C2947      C2973   1.476       .  S
N2948      N2949   1.323       .  A
N2948      N2954   1.318       .  A
N2948     Mn2956   2.215       .  S
N2949      C2959   1.354       .  A
N2950      N2951   1.323       .  A
N2950      N2952   1.319       .  A
N2951      C2960   1.356       .  A
N2952      N2953   1.320       .  A
N2953      C2960   1.351       .  A
N2954      N2955   1.321       .  A
N2954     Mn2957   2.209       .  S
N2955      C2959   1.352       .  A
Mn2956    Cl2958   2.553       .  S
Mn2957    Cl2958   2.540       .  S
C2959      C2964   1.482       .  S
C2960      C2985   1.484       .  S
C2961      C2962   1.403       .  A
C2961      C2966   1.415       .  A
C2962      H2971   1.084       .  S
C2963      C2964   1.415       .  A
C2963      S2967   1.800       .  S
C2965      C2966   1.404       .  A
C2965      H2972   1.084       .  S
C2966      S2968   1.804       .  S
S2967      H2970   1.405       .  S
S2968      H2969   1.405       .  S
C2973      C2974   1.405       .  A
C2973      C2978   1.409       .  A
C2974      C2975   1.396       .  A
C2974      H2983   1.083       .  S
C2975      C2976   1.413       .  A
C2975      S2979   1.806       .  S
C2976      C2977   1.407       .  A
C2977      C2978   1.402       .  A
C2977      H2984   1.084       .  S
C2978      S2980   1.803       .  S
S2979      H2982   1.406       .  S
S2980      H2981   1.405       .  S
C2985      C2986   1.403       .  A
C2986      H2995   1.084       .  S
C2987      C2988   1.417       .  A
C2988      C2989   1.404       .  A
C2989      C2990   1.400       .  A
C2989      H2996   1.084       .  S
C2990      S2992   1.807       .  S
C2997      C2998   1.401       .  A
C2997      C3002   1.413       .  A
C2998      C2999   1.395       .  A
C2998      H3007   1.084       .  S
C2999      C3000   1.414       .  A
C2999      S3003   1.802       .  S
C3000      C3001   1.401       .  A
C3001      C3002   1.400       .  A
C3001      H3008   1.084       .  S
C3002      S3004   1.804       .  S
S3003      H3006   1.404       .  S
S3004      H3005   1.405       .  S
C3009      C3010   1.406       .  A
C3009      C3014   1.418       .  A
C3010      H3019   1.084       .  S
C3011      C3012   1.414       .  A
C3011      S3015   1.804       .  S
C3012      C3013   1.403       .  A
C3013      H3020   1.084       .  S
S3015      H3018   1.406       .  S
S3016      H3017   1.403       .  S
C3021      C3022   1.405       .  A
C3021      C3026   1.415       .  A
C3022      C3023   1.401       .  A
C3022      H3031   1.084       .  S
C3023      C3024   1.413       .  A
C3023      S3027   1.805       .  S
C3024      C3025   1.403       .  A
C3025      C3026   1.396       .  A
C3025      H3032   1.084       .  S
C3026      S3028   1.799       .  S
S3027      H3030   1.405       .  S
C3033      C3034   1.404       .  A
C3033      C3038   1.415       .  A
C3034      C3035   1.402       .  A
C3034      H3043   1.084       .  S
C3035      S3039   1.807       .  S
C3036      C3037   1.402       .  A
C3037      H3044   1.083       .  S
C3038      S3040   1.806       .  S
S3040      H3041   1.407   1_565  S
C3045      C3046   1.406       .  A
C3045      C3050   1.412       .  A
C3046      C3047   1.403       .  A
C3046      H3055   1.084       .  S
C3047      C3048   1.412       .  A
C3047      S3051   1.806       .  S
C3048      C3049   1.405       .  A
C3049      C3050   1.397       .  A
C3049      H3056   1.084       .  S
C3050      S3052   1.805       .  S
S3051      H3054   1.403       .  S
S3052      H3053   1.405       .  S
C3057      C3058   1.399       .  A
C3057      C3062   1.414       .  A
C3058      C3059   1.397       .  A
C3058      H3067   1.084       .  S
C3059      C3060   1.420       .  A
C3059      S3063   1.802       .  S
C3060      C3061   1.407       .  A
C3061      C3062   1.406       .  A
C3061      H3068   1.083       .  S
C3062      S3064   1.806       .  S
S3063      H3066   1.407       .  S
S3064      H3065   1.402       .  S
C3069      C3070   1.408       .  A
C3069      C3074   1.411       .  A
C3070      C3071   1.410       .  A
C3070      H3079   1.083       .  S
C3071      C3072   1.418       .  A
C3071      S3075   1.799       .  S
C3072      C3073   1.407       .  A
C3073      C3074   1.391       .  A
C3073      H3080   1.083       .  S
C3074      S3076   1.805       .  S
S3075      H3078   1.408       .  S
S3076      H3077   1.406       .  S
C3081      C3082   1.405       .  A
C3081      C3086   1.415       .  A
C3082      C3083   1.398       .  A
C3082      H3091   1.084       .  S
C3083      C3084   1.410       .  A
C3083      S3087   1.805       .  S
C3084      C3085   1.398       .  A
C3085      C3086   1.398       .  A
C3085      H3092   1.084       .  S
C3086      S3088   1.804       .  S
S3087      H3090   1.406       .  S
S3088      H3089   1.406       .  S
C3093      C3094   1.399       .  A
C3093      C3098   1.412       .  A
C3094      C3095   1.398       .  A
C3094      H3103   1.084       .  S
C3095      C3096   1.413       .  A
C3095      S3099   1.803       .  S
C3096      C3097   1.401       .  A
C3097      C3098   1.397       .  A
C3097      H3104   1.084       .  S
C3098      S3100   1.805       .  S
S3099      H3102   1.406       .  S
S3100      H3101   1.406       .  S
C3105      C3106   1.405       .  A
C3105      C3110   1.417       .  A
C3106      C3107   1.406       .  A
C3107      C3108   1.416       .  A
C3108      C3109   1.401       .  A
C3109      C3110   1.393       .  A
C3109      H3116   1.084       .  S
C3110      S3112   1.805       .  S
S3111      H3114   1.406       .  S
S3112      H3113   1.407       .  S
C3117      C3118   1.410       .  A
C3117      C3122   1.417       .  A
C3118      C3119   1.393       .  A
C3118      H3127   1.083       .  S
C3119      C3120   1.406       .  A
C3119      S3123   1.805       .  S
C3120      C3121   1.403       .  A
C3121      C3122   1.403       .  A
S3123      H3126   1.405       .  S
S3124      H3125   1.407       .  S
C3129      C3130   1.401       .  A
C3129      C3134   1.411       .  A
C3130      C3131   1.398       .  A
C3130      H3139   1.084       .  S
C3131      C3132   1.414       .  A
C3131      S3135   1.801       .  S
C3132      C3133   1.407       .  A
C3133      C3134   1.398       .  A
C3133      H3140   1.083       .  S
C3134      S3136   1.806       .  S
S3135      H3138   1.408       .  S
S3136      H3137   1.404       .  S
C3141      C3142   1.408       .  A
C3141      C3146   1.423       .  A
C3142      C3143   1.406       .  A
C3142      H3151   1.083       .  S
C3143      C3144   1.413       .  A
C3143      S3147   1.805       .  S
C3144      C3145   1.398       .  A
C3145      C3146   1.395       .  A
C3145      H3152   1.085       .  S
C3146      S3148   1.802       .  S
S3147      H3150   1.402       .  S
S3148      H3149   1.408       .  S
C3153      C3154   1.404       .  A
C3154      H3163   1.085       .  S
C3155      C3156   1.410       .  A
C3155      S3159   1.804       .  S
C3156      C3157   1.406       .  A
C3157      C3158   1.403   1_565  A
C3157      H3164   1.084       .  S
C3158      S3160   1.804       .  S
S3159      H3162   1.405       .  S
C3165      C3166   1.401       .  A
C3165      C3170   1.415       .  A
C3166      C3167   1.398       .  A
C3166      H3175   1.084       .  S
C3167      C3168   1.414       .  A
C3167      S3171   1.801       .  S
C3168      C3169   1.401       .  A
C3169      C3170   1.403       .  A
C3169      H3176   1.084       .  S
C3170      S3172   1.804       .  S
S3171      H3174   1.406       .  S
S3172      H3173   1.406       .  S
C3177      C3178   1.402       .  A
C3177      C3182   1.410       .  A
C3178      C3179   1.399   1_565  A
C3178      H3187   1.084       .  S
C3179      S3183   1.799       .  S
C3180      C3181   1.405       .  A
C3181      H3188   1.083       .  S
C3189      C3190   1.407       .  A
C3189      C3194   1.418       .  A
C3190      C3191   1.402       .  A
C3190      H3199   1.084       .  S
C3191      C3192   1.412       .  A
C3191      S3195   1.804       .  S
C3192      C3193   1.403       .  A
C3193      C3194   1.402       .  A
C3193      H3200   1.083       .  S
C3194      S3196   1.809       .  S
S3195      H3198   1.405       .  S
S3196      H3197   1.407       .  S
C3201      C3202   1.405   1_565  A
C3201      C3206   1.416       .  A
C3202      H3211   1.084       .  S
C3203      C3204   1.412       .  A
C3203      S3207   1.804       .  S
C3204      C3205   1.402       .  A
C3205      H3212   1.084       .  S
C3206      S3208   1.801       .  S
S3207      H3210   1.405       .  S
S3208      H3209   1.408       .  S
C3213      C3214   1.404       .  A
C3213      C3218   1.414       .  A
C3214      C3215   1.402       .  A
C3214      H3223   1.084       .  S
C3215      C3216   1.413       .  A
C3215      S3219   1.803       .  S
C3216      C3217   1.405       .  A
C3217      C3218   1.400       .  A
C3217      H3224   1.084       .  S
C3218      S3220   1.805       .  S
S3219      H3222   1.406       .  S
S3220      H3221   1.406       .  S
C3225      C3230   1.417       .  A
C3226      C3227   1.400       .  A
C3226      H3235   1.084       .  S
C3227      C3228   1.414       .  A
C3227      S3231   1.805       .  S
C3228      C3229   1.405       .  A
C3229      H3236   1.084       .  S
C3230      S3232   1.800       .  S
S3231      H3234   1.406       .  S
S3232      H3233   1.408       .  S
C3237      C3238   1.401       .  A
C3237      C3242   1.414       .  A
C3238      C3239   1.400       .  A
C3238      H3247   1.084       .  S
C3239      C3240   1.420       .  A
C3239      S3243   1.800       .  S
C3240      C3241   1.407       .  A
C3241      C3242   1.405       .  A
C3241      H3248   1.084       .  S
C3242      S3244   1.804       .  S
S3243      H3246   1.408       .  S
S3244      H3245   1.406       .  S
C3249      C3250   1.406       .  A
C3249      C3254   1.408       .  A
C3250      C3251   1.407       .  A
C3250      H3259   1.084       .  S
C3251      C3252   1.416       .  A
C3251      S3255   1.800       .  S
C3252      C3253   1.407       .  A
C3253      C3254   1.393       .  A
C3253      H3260   1.082       .  S
C3254      S3256   1.805       .  S
S3255      H3258   1.406       .  S
S3256      H3257   1.404       .  S
C3261      C3262   1.402       .  A
C3261      C3266   1.409       .  A
C3262      C3263   1.403       .  A
C3262      H3271   1.084       .  S
C3263      C3264   1.419       .  A
C3263      S3267   1.800       .  S
C3264      C3265   1.408       .  A
C3265      C3266   1.395       .  A
C3265      H3272   1.084       .  S
C3266      S3268   1.805       .  S
S3267      H3270   1.407       .  S
S3268      H3269   1.406       .  S
C3273      C3274   1.408       .  A
C3273      C3278   1.421       .  A
C3274      C3275   1.407       .  A
C3274      H3283   1.083       .  S
C3275      C3276   1.415       .  A
C3275      S3279   1.804       .  S
C3276      C3277   1.398       .  A
C3277      C3278   1.393       .  A
C3277      H3284   1.085       .  S
C3278      S3280   1.804       .  S
S3279      H3282   1.404       .  S
S3280      H3281   1.407       .  S
C3285      C3286   1.399       .  A
C3285      C3290   1.414       .  A
C3286      C3287   1.394       .  A
C3286      H3295   1.085       .  S
C3287      C3288   1.420       .  A
C3287      S3291   1.803       .  S
C3288      C3289   1.408       .  A
C3289      C3290   1.407       .  A
C3289      H3296   1.083       .  S
C3290      S3292   1.804       .  S
S3291      H3294   1.408       .  S
S3292      H3293   1.405       .  S
C3297      C3298   1.401       .  A
C3297      C3302   1.412       .  A
C3298      C3299   1.401       .  A
C3298      H3307   1.084       .  S
C3299      C3300   1.416       .  A
C3300      C3301   1.403       .  A
C3301      C3302   1.400       .  A
C3301      H3308   1.084       .  S
C3302      S3304   1.804       .  S
S3303      H3306   1.406       .  S
S3304      H3305   1.405       .  S
C3309      C3310   1.406       .  A
C3309      C3314   1.413       .  A
C3310      C3311   1.403       .  A
C3311      C3312   1.411       .  A
C3312      C3313   1.403       .  A
C3313      C3314   1.398       .  A
C3313      H3320   1.084       .  S
C3314      S3316   1.803       .  S
S3316      H3317   1.404       .  S
C3321      C3322   1.401       .  A
C3321      C3326   1.414   1_565  A
C3322      C3323   1.399       .  A
C3322      H3331   1.084       .  S
C3323      C3324   1.417       .  A
C3323      S3327   1.802       .  S
C3324      C3325   1.406   1_565  A
C3325      C3326   1.407       .  A
S3327      H3330   1.407       .  S
S3328      H3329   1.405       .  S
C3333      C3334   1.406   1_565  A
C3333      C3338   1.415       .  A
C3334      C3335   1.407       .  A
C3334      H3343   1.083       .  S
C3335      C3336   1.414   1_545  A
C3336      C3337   1.399       .  A
C3337      C3338   1.399       .  A
C3337      H3344   1.083       .  S
C3338      S3340   1.807       .  S
S3339      H3342   1.405       .  S
S3340      H3341   1.407       .  S
