geometry optimzed in LAMMPS
_audit_creation_date              2020-12-01 
_audit_creation_method            'lammps2cif' 
_symmetry_space_group_name_H-M    'P1' 
_symmetry_Int_Tables_number       1 
_symmetry_cell_setting            triclinic 
loop_ 
_symmetry_equiv_pos_as_xyz 
  x,y,z 
_cell_length_a                    25.3622439 
_cell_length_b                    26.363349965278125 
_cell_length_c                    40.790885441180414 
_cell_angle_alpha                 89.9459669049555 
_cell_angle_beta                  90.17647077823834 
_cell_angle_gamma                 90.08064634630351 
loop_ 
_atom_site_label 
_atom_site_type_symbol 
_atom_site_fract_x 
_atom_site_fract_y 
_atom_site_fract_z 
_atom_site_charge 
O1          O  0.85209388  0.87368344  0.19340101    -0.83600
C2          C  0.63723917  0.83086503  0.17743198     0.95800
O3          O  0.67194453  0.79662708  0.18207932    -0.72700
O4          O  0.75229890  0.79454585  0.14365122    -0.76300
Al5        Al  0.74795000  0.80035934  0.18889548     1.49000
C6          C  0.78599279  0.81281286  0.12481090     0.91000
O7          O  0.74869432  0.93398578  0.14065003    -0.82500
O8          O  0.75127749  0.93253309  0.23852135    -0.76100
Al9        Al  0.79888536  0.90182018  0.16785048     1.90100
O10         O  0.69989908  0.96044040  0.18158936    -0.75100
O11         O  0.68792356  0.85303915  0.24597034    -0.75000
O12         O  0.64558960  0.87609319  0.18574467    -0.80600
O13         O  0.74312750  0.79273230  0.23402791    -0.78800
O14         O  0.74890134  0.86767338  0.18931869    -1.15000
O15         O  0.82409614  0.79451781  0.19575145    -0.74200
C16         C  0.85944075  0.82802309  0.20113609     0.96500
C17         C  0.71855686  0.96683356  0.15301675     0.92900
Al18       Al  0.70002839  0.90234173  0.21121879     1.55600
O19         O  0.81041184  0.85281769  0.13272359    -0.78800
C20         C  0.71101909  0.81216342  0.25338843     0.97100
C21         C  0.78155722  0.96551011  0.22640641     0.92000
O22         O  0.80021102  0.95949690  0.19782064    -0.84100
O23         O  0.64744569  0.63978442  0.44227113    -0.83600
C24         C  0.86201010  0.68338137  0.42790301     0.95800
O25         O  0.82738371  0.71778325  0.43228403    -0.72700
O26         O  0.74639875  0.72047706  0.39407575    -0.76300
Al27       Al  0.75123494  0.71380567  0.43922117     1.49000
C28         C  0.71369722  0.70172921  0.37469220     0.91000
O29         O  0.75211684  0.58049048  0.39063412    -0.82500
O30         O  0.74794325  0.58075361  0.48857163    -0.76100
Al31       Al  0.70123882  0.61217956  0.41733094     1.90100
O32         O  0.80004138  0.55357896  0.43200282    -0.75100
O33         O  0.81113996  0.66068510  0.99667915    -0.75000
O34         O  0.85370865  0.63833304  0.43666634    -0.80600
O35         O  0.75642845  0.72125657  0.48434469    -0.78800
O36         O  0.75059528  0.64640567  0.43945027    -1.15000
O37         O  0.67501045  0.71900313  0.44610192    -0.74200
C38         C  0.63985256  0.68505034  0.45071074     0.96500
C39         C  0.78184243  0.54738547  0.40323335     0.92900
Al40       Al  0.79934088  0.61162554  0.46170554     1.55600
O41         O  0.69002096  0.66115335  0.38212089    -0.78800
C42         C  0.78837184  0.70174757  0.00389836     0.97100
C43         C  0.71745815  0.54816657  0.47607247     0.92000
O44         O  0.69951428  0.55445612  0.44725602    -0.84100
O45         O  0.07492233  0.81490746  0.28941120    -0.83600
C46         C  0.19909072  0.65139370  0.33472819     0.95800
O47         O  0.16295246  0.64885214  0.31350454    -0.72700
O48         O  0.07471796  0.68873666  0.33721344    -0.76300
Al49       Al  0.11479544  0.69781860  0.29730882     1.49000
C50         C  0.05004924  0.72330831  0.35238457     0.91000
O51         O  0.15297112  0.80161750  0.37003633    -0.82500
O52         O  0.22244402  0.80931180  0.28365010    -0.76100
Al53       Al  0.11657944  0.80520958  0.32857518     1.90100
O54         O  0.23159733  0.79172222  0.34958798    -0.75100
O55         O  0.22898184  0.70985804  0.27446263    -0.75000
O56         O  0.22298428  0.69271429  0.34051869    -0.80600
O57         O  0.14931590  0.70096902  0.25511550    -0.78800
O58         O  0.15016452  0.75130493  0.31266060    -1.15000
O59         O  0.05950200  0.73488807  0.27842298    -0.74200
C60         C  0.04864816  0.78096735  0.27456381     0.96500
C61         C  0.20251692  0.80153837  0.37359087     0.92900
Al62       Al  0.22047278  0.75091280  0.31208306     1.55600
O63         O  0.06183061  0.76906807  0.34820831    -0.78800
C64         C  0.19870450  0.70074833  0.25079166     0.97100
C65         C  0.19971516  0.85090428  0.29021279     0.92000
O66         O  0.16459034  0.85349665  0.31189248    -0.84100
O67         O  0.42589875  0.69406112  0.03982811    -0.83600
C68         C  0.29916835  0.85572008  0.08423748     0.95800
O69         O  0.33510493  0.85874446  0.06306744    -0.72700
O70         O  0.42352412  0.82054544  0.08761819    -0.76300
Al71       Al  0.38430438  0.81037760  0.04757398     1.49000
C72         C  0.44908129  0.78654616  0.10281432     0.91000
O73         O  0.34791451  0.70591403  0.12034324    -0.82500
O74         O  0.27831236  0.69688697  0.03380288    -0.76100
Al75       Al  0.38431798  0.70299925  0.07893019     1.90100
O76         O  0.26899895  0.71483018  0.09979795    -0.75100
O77         O  0.27065351  0.79631108  0.02409147    -0.75000
O78         O  0.27618002  0.81399295  0.09019832    -0.80600
O79         O  0.35053043  0.80611725  0.50541426    -0.78800
O80         O  0.34978651  0.75629879  0.06286639    -1.15000
O81         O  0.44047232  0.77430043  0.02914031    -0.74200
C82         C  0.45148121  0.72836415  0.02492406     0.96500
C83         C  0.29836796  0.70520661  0.12384878     0.92900
Al84       Al  0.27952690  0.75559636  0.06202481     1.55600
O85         O  0.43842684  0.74046400  0.09866092    -0.78800
C86         C  0.30126006  0.80586240  0.50073665     0.97100
C87         C  0.30165566  0.65556337  0.04042378     0.92000
O88         O  0.33713710  0.65359050  0.06208152    -0.84100
O89         O  0.14222034  0.13548571  0.19465521    -0.83600
C90         C  0.35613851  0.18193625  0.17620628     0.95800
O91         O  0.32131972  0.21568169  0.18187575    -0.72700
O92         O  0.23839967  0.21801346  0.14512165    -0.76300
Al93       Al  0.24550069  0.21041204  0.19012756     1.49000
C94         C  0.20487789  0.19944791  0.12617499     0.91000
O95         O  0.24445012  0.07785342  0.13999133    -0.82500
O96         O  0.24689340  0.07608207  0.23790117    -0.76100
Al97       Al  0.19510121  0.10882338  0.16825537     1.90100
O98         O  0.29582503  0.05144319  0.17988359    -0.75100
O99         O  0.30926037  0.15663734  0.24566752    -0.75000
O100        O  0.34864914  0.13644499  0.18424491    -0.80600
O101        O  0.25271076  0.21656324  0.23538325    -0.78800
O102        O  0.24554532  0.14303267  0.18956457    -1.15000
O103        O  0.16968401  0.21470080  0.19828778    -0.74200
C104        C  0.13458639  0.18077025  0.20308190     0.96500
C105        C  0.27601792  0.04539446  0.15152765     0.92900
Al106      Al  0.29609585  0.10840114  0.21025388     1.55600
O107        O  0.18163604  0.15865060  0.13375193    -0.78800
C108        C  0.28600169  0.19694329  0.25404811     0.97100
C109        C  0.21603739  0.04347004  0.22580751     0.92000
O110        O  0.19588301  0.05042896  0.19762463    -0.84100
O111        O  0.34846695  0.37001435  0.44369135    -0.83600
C112        C  0.13497228  0.32592665  0.42728932     0.95800
O113        O  0.16955478  0.29163281  0.43211887    -0.72700
O114        O  0.25254541  0.28689995  0.39575488    -0.76300
Al115      Al  0.24500012  0.29567176  0.44076358     1.49000
C116        C  0.28454986  0.30607233  0.37616935     0.91000
O117        O  0.24478124  0.42792108  0.39048618    -0.82500
O118        O  0.24700073  0.43071170  0.48850765    -0.76100
Al119      Al  0.29514436  0.39698335  0.41804680     1.90100
O120        O  0.19616604  0.45585440  0.43098120    -0.75100
O121        O  0.18355333  0.35092270  0.99694111    -0.75000
O122        O  0.14269997  0.37104476  0.43610705    -0.80600
O123        O  0.23716495  0.28908812  0.48586840    -0.78800
O124        O  0.24552431  0.36320424  0.44012385    -1.15000
O125        O  0.32047399  0.29115735  0.44946724    -0.74200
C126        C  0.35567775  0.32525439  0.45334466     0.96500
C127        C  0.21499501  0.46137719  0.40239096     0.92900
Al128      Al  0.19631041  0.39870362  0.46139875     1.55600
O129        O  0.30698107  0.34744669  0.38328247    -0.78800
C130        C  0.20515523  0.30955559  0.00482566     0.97100
C131        C  0.27796624  0.46280277  0.47597217     0.92000
O132        O  0.29647396  0.45551060  0.44745065    -0.84100
O133        O  0.92067552  0.31829525  0.33812876    -0.83600
C134        C  0.79476901  0.15642287  0.29275595     0.95800
O135        O  0.82991178  0.15374774  0.31455911    -0.72700
O136        O  0.91887171  0.19174107  0.29075291    -0.76300
Al137      Al  0.87879164  0.20192463  0.33041471     1.49000
C138        C  0.94484075  0.22572962  0.27579781     0.91000
O139        O  0.84372398  0.30575176  0.25732676    -0.82500
O140        O  0.77314869  0.31465834  0.34336543    -0.76100
Al141      Al  0.87950125  0.30907079  0.29887101     1.90100
O142        O  0.76451064  0.29755558  0.27725858    -0.75100
O143        O  0.76476496  0.21529805  0.35242255    -0.75000
O144        O  0.77168184  0.19797658  0.28635070    -0.80600
O145        O  0.84410142  0.20614083  0.37227890    -0.78800
O146        O  0.84469063  0.25579262  0.31470314    -1.15000
O147        O  0.93447134  0.23805809  0.34915540    -0.74200
C148        C  0.94612948  0.28391072  0.35301583     0.96500
C149        C  0.79428340  0.30655749  0.25341962     0.92900
Al150      Al  0.77442872  0.25632379  0.31483840     1.55600
O151        O  0.93395931  0.27179110  0.27962350    -0.78800
C152        C  0.79467792  0.20609271  0.37626734     0.97100
C153        C  0.79700010  0.35589519  0.33713756     0.92000
O154        O  0.83209686  0.35815141  0.31537358    -0.84100
O155        O  0.57261739  0.19317244  0.08890222    -0.83600
C156        C  0.69572593  0.35718465  0.04238128     0.95800
O157        O  0.66033966  0.35940034  0.06395433    -0.72700
O158        O  0.57226184  0.31909624  0.04017338    -0.76300
Al159      Al  0.61221180  0.31020133  0.07995539     1.49000
C160        C  0.54657029  0.28443464  0.02565453     0.91000
O161        O  0.64805347  0.20592841  0.50768579    -0.82500
O162        O  0.72082694  0.19955874  0.09313865    -0.76100
Al163      Al  0.61316572  0.20258359  0.04937749     1.90100
O164        O  0.72756488  0.21654207  0.02704199    -0.75100
O165        O  0.72655506  0.29888093  0.10221779    -0.75000
O166        O  0.71896285  0.31580804  0.03601954    -0.80600
O167        O  0.64702668  0.30675305  0.12184248    -0.78800
O168        O  0.64723255  0.25674336  0.06465202    -1.15000
O169        O  0.55665740  0.27333174  0.09874857    -0.74200
C170        C  0.54588132  0.22730872  0.10305737     0.96500
C171        C  0.69739872  0.20623843  0.50350290     0.92900
Al172      Al  0.71753390  0.25763380  0.06460980     1.55600
O173        O  0.55784556  0.23858683  0.03006019    -0.78800
C174        C  0.69645516  0.30748746  0.12597480     0.97100
C175        C  0.69796232  0.15777817  0.08713130     0.92000
O176        O  0.66185181  0.15466816  0.06594895    -0.84100
C177        C  0.69056835  0.19871139  0.44244920    -0.15100
C178        C  0.72134149  0.19704750  0.47097273     0.07000
C179        C  0.77652847  0.19219538  0.46800755    -0.15100
C180        C  0.80065019  0.19240900  0.43718950    -0.15100
C181        C  0.77004838  0.19744271  0.40872428     0.07000
C182        C  0.71463484  0.19891440  0.41168373    -0.15100
H183        H  0.64811615  0.20247036  0.44390171     0.11000
H184        H  0.80137823  0.19036424  0.98961233     0.11000
H185        H  0.84325095  0.19089061  0.43574083     0.11000
H186        H  0.68971541  0.20247640  0.39020291     0.11000
C187        C  0.71433109  0.31797215  0.21789549    -0.15100
C188        C  0.76973242  0.31566864  0.22093409     0.07000
C189        C  0.80041278  0.31694247  0.19247259    -0.15100
C190        C  0.77624015  0.31719472  0.16164387    -0.15100
C191        C  0.72082122  0.31611383  0.15856784     0.07000
C192        C  0.69012101  0.31815619  0.18702524    -0.15100
H193        H  0.68946187  0.31744080  0.23942548     0.11000
H194        H  0.84302251  0.31533086  0.19396959     0.11000
H195        H  0.80117884  0.31600656  0.14015898     0.11000
H196        H  0.64748332  0.31753608  0.18548989     0.11000
C197        C  0.46857620  0.25515909  0.99339521    -0.15100
C198        C  0.50046725  0.29554652  0.00466315     0.07000
C199        C  0.48528985  0.34539933  0.49774922    -0.15100
C200        C  0.43869024  0.35466638  0.48045287    -0.15100
C201        C  0.40612201  0.31427356  0.46999836     0.07000
C202        C  0.42172833  0.26444117  0.47645485    -0.15100
H203        H  0.47900480  0.21610249  0.99844530     0.11000
H204        H  0.50879931  0.37714567  0.50621798     0.11000
H205        H  0.42753658  0.39370597  0.47596914     0.11000
H206        H  0.39757387  0.23271014  0.46868972     0.11000
C207        C  0.00712142  0.34532229  0.38083869    -0.15100
C208        C  0.99200368  0.29536137  0.37414478     0.07000
C209        C  0.02329965  0.25516181  0.38622763    -0.15100
C210        C  0.06940201  0.26473042  0.40390478    -0.15100
C211        C  0.08489633  0.31468221  0.41022927     0.07000
C212        C  0.05298173  0.35488633  0.39884172    -0.15100
H213        H  0.98405756  0.37692380  0.37175129     0.11000
H214        H  0.01291312  0.21602458  0.38135910     0.11000
H215        H  0.09312134  0.23312077  0.41230199     0.11000
H216        H  0.06411098  0.39399740  0.40314112     0.11000
C217        C  0.44103455  0.15496728  0.15009914    -0.15100
C218        C  0.40629021  0.19428568  0.15932037     0.07000
C219        C  0.41915126  0.24427258  0.15096429    -0.15100
C220        C  0.46529365  0.25465638  0.13352753    -0.15100
C221        C  0.49950409  0.21526654  0.12372737     0.07000
C222        C  0.48697444  0.16531614  0.13237251    -0.15100
H223        H  0.43223105  0.11581458  0.15600794     0.11000
H224        H  0.39328533  0.27527498  0.15752520     0.11000
H225        H  0.47348550  0.29371761  0.12704991     0.11000
H226        H  0.51227227  0.13424825  0.12512444     0.11000
C227        C  0.04757233  0.15392907  0.22682745    -0.15100
C228        C  0.08396219  0.19291160  0.21938409     0.07000
C229        C  0.07243320  0.24253114  0.22909388    -0.15100
C230        C  0.02634544  0.25282222  0.24645937    -0.15100
C231        C  0.99078465  0.21369507  0.25486750     0.07000
C232        C  0.00160101  0.16417068  0.24457015    -0.15100
H233        H  0.05520171  0.11511208  0.21962451     0.11000
H234        H  0.09947252  0.27329005  0.22382408     0.11000
H235        H  0.01941980  0.29153465  0.25416889     0.11000
H236        H  0.97499582  0.13338277  0.25057232     0.11000
C237        C  0.18673443  0.20238640  0.06553171    -0.15100
C238        C  0.19389022  0.22756323  0.09541538     0.07000
C239        C  0.19726529  0.28102543  0.09542720    -0.15100
C240        C  0.19660722  0.30859741  0.06603583    -0.15100
C241        C  0.19375111  0.28307599  0.03603809     0.07000
C242        C  0.18740727  0.22989264  0.03606859    -0.15100
H243        H  0.18426814  0.16138499  0.06480585     0.11000
H244        H  0.20259246  0.30140699  0.11825186     0.11000
H245        H  0.20196486  0.34935508  0.06666486     0.11000
H246        H  0.18513618  0.20940005  0.01309842     0.11000
C247        C  0.29146597  0.22464257  0.34490034    -0.15100
C248        C  0.29487097  0.27812686  0.34517542     0.07000
C249        C  0.30266771  0.30355500  0.31539837    -0.15100
C250        C  0.30283043  0.27634288  0.28581099    -0.15100
C251        C  0.29681912  0.22313784  0.28549827     0.07000
C252        C  0.29303104  0.19736449  0.31539888    -0.15100
H253        H  0.28572497  0.20396041  0.36757420     0.11000
H254        H  0.30525847  0.34455136  0.31481529     0.11000
H255        H  0.30559293  0.29707396  0.26293300     0.11000
H256        H  0.28773758  0.15659273  0.31581867     0.11000
C257        C  0.27517155  0.94668117  0.08437272    -0.15100
C258        C  0.28653075  0.90233466  0.10207522     0.07000
C259        C  0.29633473  0.90543798  0.13581560    -0.15100
C260        C  0.29531020  0.95251693  0.15160905    -0.15100
C261        C  0.28360090  0.99703359  0.13395345     0.07000
C262        C  0.27281537  0.99353703  0.10026012    -0.15100
H263        H  0.26890589  0.94503763  0.05810608     0.11000
H264        H  0.30684491  0.87179562  0.14962838     0.11000
H265        H  0.30275660  0.95398132  0.17775409     0.11000
H266        H  0.26300998  0.02709370  0.08617712     0.11000
C267        C  0.28011553  0.56391899  0.04170065    -0.15100
C268        C  0.28946599  0.60798055  0.02323395     0.07000
C269        C  0.29696972  0.60391090  0.48932330    -0.15100
C270        C  0.29576786  0.55621452  0.47417539    -0.15100
C271        C  0.28610302  0.51201497  0.49264944     0.07000
C272        C  0.27755963  0.51649747  0.02650132    -0.15100
H273        H  0.27543453  0.56624740  0.06805153     0.11000
H274        H  0.30574046  0.63730584  0.47482632     0.11000
H275        H  0.30140482  0.55399617  0.44790712     0.11000
H276        H  0.26927062  0.48325568  0.04124616     0.11000
C277        C  0.22076118  0.98978896  0.27610310    -0.15100
C278        C  0.21028249  0.99408506  0.24243475     0.07000
C279        C  0.20140851  0.94976438  0.22397401    -0.15100
C280        C  0.20249042  0.90203946  0.23905147    -0.15100
C281        C  0.21170069  0.89814449  0.27282758     0.07000
C282        C  0.22068201  0.94230815  0.29122182    -0.15100
H283        H  0.22855200  0.02321296  0.29077467     0.11000
H284        H  0.19447896  0.95196331  0.19779682     0.11000
H285        H  0.19382223  0.86848322  0.22469083     0.11000
H286        H  0.22647831  0.94001986  0.31751329     0.11000
C287        C  0.19831177  0.81978072  0.43400539    -0.15100
C288        C  0.22816551  0.81094294  0.40575622     0.07000
C289        C  0.28349410  0.80701368  0.40875667    -0.15100
C290        C  0.30800547  0.80862584  0.43949277    -0.15100
C291        C  0.27772733  0.81414261  0.46790317     0.07000
C292        C  0.22285147  0.82141506  0.46474972    -0.15100
H293        H  0.15583837  0.82336685  0.43251445     0.11000
H294        H  0.30785363  0.80044753  0.38742629     0.11000
H295        H  0.35020593  0.80281618  0.44112046     0.11000
H296        H  0.19844243  0.82625807  0.98625615     0.11000
C297        C  0.30324540  0.69166574  0.18479813    -0.15100
C298        C  0.27309933  0.69523648  0.15607368     0.07000
C299        C  0.21756872  0.69387484  0.15864966    -0.15100
C300        C  0.19284647  0.69253362  0.18933156    -0.15100
C301        C  0.22311112  0.69246444  0.21812737     0.07000
C302        C  0.27856762  0.69021686  0.21542267    -0.15100
H303        H  0.34590433  0.69232289  0.18372259     0.11000
H304        H  0.19301132  0.69606596  0.13693347     0.11000
H305        H  0.15022493  0.69409748  0.19050994     0.11000
H306        H  0.30324509  0.68964367  0.23713075     0.11000
C307        C  0.20276991  0.60230009  0.38670121    -0.15100
C308        C  0.21082501  0.60464729  0.35277032     0.07000
C309        C  0.21882662  0.55966649  0.33513286    -0.15100
C310        C  0.21887379  0.51286910  0.35113402    -0.15100
C311        C  0.20929389  0.51009789  0.38494574     0.07000
C312        C  0.20156483  0.55527082  0.40266153    -0.15100
H313        H  0.19505995  0.63654951  0.40052765     0.11000
H314        H  0.22393071  0.56078369  0.30877767     0.11000
H315        H  0.22592125  0.47877013  0.33702612     0.11000
H316        H  0.19542808  0.55427620  0.42892096     0.11000
C317        C  0.55829195  0.65666768  0.47978593    -0.15100
C318        C  0.58933284  0.69665090  0.46716980     0.07000
C319        C  0.57251850  0.74663239  0.97178815    -0.15100
C320        C  0.52647195  0.75646387  0.98942043    -0.15100
C321        C  0.49659914  0.71655342  0.00322884     0.07000
C322        C  0.51259385  0.66651129  0.49775158    -0.15100
H323        H  0.57022116  0.61754115  0.47668849     0.11000
H324        H  0.59528659  0.77808171  0.96220240     0.11000
H325        H  0.51514576  0.79564477  0.99302487     0.11000
H326        H  0.49056629  0.63506340  0.50798217     0.11000
C327        C  0.92668082  0.74389035  0.40273966    -0.15100
C328        C  0.91262844  0.69432268  0.41128372     0.07000
C329        C  0.94610115  0.65403249  0.40198168    -0.15100
C330        C  0.99154876  0.66298372  0.38347082    -0.15100
C331        C  0.00482098  0.71247328  0.37422465     0.07000
C332        C  0.97236532  0.75288124  0.38462081    -0.15100
H333        H  0.90189475  0.77561122  0.40948394     0.11000
H334        H  0.93637349  0.61518195  0.40815929     0.11000
H335        H  0.01569281  0.63122868  0.37595155     0.11000
H336        H  0.98132242  0.79168391  0.37788752     0.11000
C337        C  0.79450612  0.40605604  0.38886211    -0.15100
C338        C  0.78619292  0.40308335  0.35492960     0.07000
C339        C  0.77873788  0.44785214  0.33687749    -0.15100
C340        C  0.77899605  0.49494166  0.35243822    -0.15100
C341        C  0.78820540  0.49832681  0.38628703     0.07000
C342        C  0.79593881  0.45343320  0.40441472    -0.15100
H343        H  0.80202016  0.37202458  0.40302033     0.11000
H344        H  0.77363650  0.44632395  0.31051222     0.11000
H345        H  0.77218949  0.52879091  0.33796843     0.11000
H346        H  0.80205628  0.45490620  0.43068692     0.11000
C347        C  0.70245463  0.45450026  0.47502168    -0.15100
C348        C  0.70967143  0.49940645  0.49316238     0.07000
C349        C  0.71658866  0.49620675  0.02722462    -0.15100
C350        C  0.71477300  0.44921537  0.04296906    -0.15100
C351        C  0.70772155  0.40443387  0.02487000     0.07000
C352        C  0.70204208  0.40725312  0.99074501    -0.15100
H353        H  0.69816166  0.45585615  0.44860961     0.11000
H354        H  0.72305053  0.53010286  0.04168805     0.11000
H355        H  0.71812336  0.44777050  0.06944269     0.11000
H356        H  0.69513898  0.37321167  0.97649666     0.11000
C357        C  0.55119757  0.85841283  0.15265803    -0.15100
C358        C  0.58651570  0.81908150  0.16112169     0.07000
C359        C  0.57429574  0.76933908  0.15198167    -0.15100
C360        C  0.52863801  0.75919549  0.13405513    -0.15100
C361        C  0.49424463  0.79859629  0.12449836     0.07000
C362        C  0.50561521  0.84829775  0.13433228    -0.15100
H363        H  0.55952604  0.89734610  0.15937125     0.11000
H364        H  0.60057804  0.73834600  0.15803993     0.11000
H365        H  0.52123839  0.72033494  0.12677298     0.11000
H366        H  0.47988081  0.87929548  0.12742547     0.11000
C367        C  0.94473530  0.85426697  0.22728330    -0.15100
C368        C  0.90992091  0.81517532  0.21753559     0.07000
C369        C  0.92279579  0.76494448  0.22520699    -0.15100
C370        C  0.96880010  0.75414634  0.24280651    -0.15100
C371        C  0.00276725  0.79336273  0.25345807     0.07000
C372        C  0.99048450  0.84350546  0.24520105    -0.15100
H373        H  0.93597152  0.89356827  0.22181778     0.11000
H374        H  0.89693226  0.73409459  0.21811693     0.11000
H375        H  0.97695448  0.71492355  0.24885162     0.11000
H376        H  0.01573061  0.87441817  0.25300032     0.11000
C377        C  0.80261627  0.81004121  0.06407767    -0.15100
C378        C  0.79644071  0.78487391  0.09404842     0.07000
C379        C  0.79432266  0.73138328  0.09431336    -0.15100
C380        C  0.79587470  0.70360405  0.06508555    -0.15100
C381        C  0.79826114  0.72893142  0.03500049     0.07000
C382        C  0.80276853  0.78228639  0.03475584    -0.15100
H383        H  0.80398683  0.85108064  0.06319432     0.11000
H384        H  0.78965000  0.71107793  0.11722941     0.11000
H385        H  0.79177146  0.66272163  0.06588646     0.11000
H386        H  0.80449764  0.80262058  0.51168845     0.11000
C387        C  0.69580119  0.73202655  0.28452413    -0.15100
C388        C  0.70138229  0.78526690  0.28456588     0.07000
C389        C  0.70525284  0.81072188  0.31451441    -0.15100
C390        C  0.70698216  0.78311743  0.34382506    -0.15100
C391        C  0.70364041  0.72967199  0.34379246     0.07000
C392        C  0.69613503  0.70445109  0.31395059    -0.15100
H393        H  0.69302720  0.71163127  0.26153630     0.11000
H394        H  0.71029695  0.85152083  0.31512057     0.11000
H395        H  0.71264391  0.80351577  0.36661257     0.11000
H396        H  0.69375370  0.66344588  0.31323255     0.11000
C397        C  0.77872540  0.01737123  0.27735135    -0.15100
C398        C  0.78754719  0.01442099  0.24349288     0.07000
C399        C  0.79390695  0.05952853  0.22541871    -0.15100
C400        C  0.79143481  0.10676544  0.24101847    -0.15100
C401        C  0.78358976  0.10937075  0.27495334     0.07000
C402        C  0.77750360  0.06435991  0.29297379    -0.15100
H403        H  0.77296759  0.98327807  0.29175439     0.11000
H404        H  0.79974213  0.05829550  0.19914229     0.11000
H405        H  0.79803374  0.14101617  0.22691157     0.11000
H406        H  0.77294624  0.06564374  0.31936655     0.11000
C407        C  0.71883454  0.06640398  0.08657527    -0.15100
C408        C  0.71102146  0.11096920  0.10469986     0.07000
C409        C  0.70433997  0.10792529  0.13871264    -0.15100
C410        C  0.70421461  0.06057146  0.15427464    -0.15100
C411        C  0.71188411  0.01583612  0.13607824     0.07000
C412        C  0.72007521  0.01932369  0.10217152    -0.15100
H413        H  0.72281944  0.06805606  0.06015340     0.11000
H414        H  0.69674910  0.14182084  0.15292419     0.11000
H415        H  0.69886734  0.05897739  0.18058546     0.11000
H416        H  0.72687518  0.98556076  0.08768322     0.11000
O417        O  0.85209282  0.87368371  0.69339995    -0.83600
C418        C  0.63723803  0.83086597  0.67743206     0.95800
O419        O  0.67194350  0.79662794  0.68207892    -0.72700
O420        O  0.75229875  0.79454483  0.64365182    -0.76300
Al421      Al  0.74794866  0.80035958  0.68889596     1.49000
C422        C  0.78599127  0.81281253  0.62481089     0.91000
O423        O  0.74869127  0.93398602  0.64065044    -0.82500
O424        O  0.75127741  0.93253365  0.73852172    -0.76100
Al425      Al  0.79888338  0.90182045  0.66785016     1.90100
O426        O  0.69989780  0.96044112  0.68159044    -0.75100
O427        O  0.68792271  0.85304019  0.74597115    -0.75000
O428        O  0.64558803  0.87609384  0.68574570    -0.80600
O429        O  0.74312496  0.79273229  0.73402827    -0.78800
O430        O  0.74890000  0.86767368  0.68931900    -1.15000
O431        O  0.82409455  0.79451838  0.69575282    -0.74200
C432        C  0.85943931  0.82802388  0.70113649     0.96500
C433        C  0.71855448  0.96683396  0.65301758     0.92900
Al434      Al  0.70002749  0.90234234  0.71121954     1.55600
O435        O  0.81040899  0.85281836  0.63272294    -0.78800
C436        C  0.71101733  0.81216398  0.75338898     0.97100
C437        C  0.78155762  0.96551017  0.72640656     0.92000
O438        O  0.80021026  0.95949691  0.69782050    -0.84100
O439        O  0.64744503  0.63978415  0.94227088    -0.83600
C440        C  0.86200932  0.68338127  0.92790354     0.95800
O441        O  0.82738283  0.71778308  0.93228434    -0.72700
O442        O  0.74639888  0.72047634  0.89407565    -0.76300
Al443      Al  0.75123423  0.71380552  0.93922108     1.49000
C444        C  0.71369684  0.70172901  0.87469223     0.91000
O445        O  0.75211687  0.58049060  0.89063425    -0.82500
O446        O  0.74794164  0.58075390  0.98857174    -0.76100
Al447      Al  0.70123839  0.61217945  0.91733086     1.90100
O448        O  0.80004100  0.55357930  0.93200327    -0.75100
O449        O  0.81114168  0.66068486  0.49667867    -0.75000
O450        O  0.85370813  0.63833307  0.93666719    -0.80600
O451        O  0.75642712  0.72125686  0.98434461    -0.78800
O452        O  0.75059457  0.64640564  0.93945040    -1.15000
O453        O  0.67500973  0.71900295  0.94610131    -0.74200
C454        C  0.63985175  0.68505024  0.95071007     0.96500
C455        C  0.78184270  0.54738587  0.90323363     0.92900
Al456      Al  0.79933984  0.61162569  0.96170603     1.55600
O457        O  0.69002030  0.66115332  0.88212091    -0.78800
C458        C  0.78837344  0.70174715  0.50389819     0.97100
C459        C  0.71745713  0.54816664  0.97607229     0.92000
O460        O  0.69951382  0.55445598  0.94725572    -0.84100
O461        O  0.07492041  0.81491040  0.78941306    -0.83600
C462        C  0.19908833  0.65139555  0.83472976     0.95800
O463        O  0.16295163  0.64885479  0.81350500    -0.72700
O464        O  0.07471620  0.68873855  0.83721323    -0.76300
Al465      Al  0.11479500  0.69782183  0.79730935     1.49000
C466        C  0.05004769  0.72330975  0.85238494     0.91000
O467        O  0.15296944  0.80162139  0.87003854    -0.82500
O468        O  0.22244418  0.80931409  0.78365316    -0.76100
Al469      Al  0.11657788  0.80521229  0.82857700     1.90100
O470        O  0.23159537  0.79172434  0.84959035    -0.75100
O471        O  0.22898213  0.70986036  0.77446545    -0.75000
O472        O  0.22298127  0.69271613  0.84052149    -0.80600
O473        O  0.14931704  0.70097406  0.75511659    -0.78800
O474        O  0.15016336  0.75130776  0.81266237    -1.15000
O475        O  0.05950191  0.73489134  0.77842334    -0.74200
C476        C  0.04864702  0.78097049  0.77456499     0.96500
C477        C  0.20251528  0.80154260  0.87359292     0.92900
Al478      Al  0.22047157  0.75091502  0.81208581     1.55600
O479        O  0.06182964  0.76906969  0.84820986    -0.78800
C480        C  0.19870586  0.70075273  0.75079365     0.97100
C481        C  0.19971491  0.85090661  0.79021528     0.92000
O482        O  0.16458873  0.85349933  0.81189415    -0.84100
O483        O  0.42589815  0.69405970  0.53982836    -0.83600
C484        C  0.29916655  0.85571808  0.58423723     0.95800
O485        O  0.33510176  0.85874244  0.56306626    -0.72700
O486        O  0.42352195  0.82054571  0.58761795    -0.76300
Al487      Al  0.38430250  0.81037574  0.54757371     1.49000
C488        C  0.44908063  0.78654693  0.60281365     0.91000
O489        O  0.34791625  0.70591430  0.62034438    -0.82500
O490        O  0.27831196  0.69688387  0.53380472    -0.76100
Al491      Al  0.38431840  0.70299838  0.57893089     1.90100
O492        O  0.26899999  0.71482828  0.59979968    -0.75100
O493        O  0.27065191  0.79630698  0.52409198    -0.75000
O494        O  0.27617933  0.81399072  0.59019897    -0.80600
O495        O  0.35053231  0.80612212  0.00541443    -0.78800
O496        O  0.34978581  0.75629692  0.56286692    -1.15000
O497        O  0.44047164  0.77429908  0.52914071    -0.74200
C498        C  0.45148085  0.72836283  0.52492450     0.96500
C499        C  0.29836981  0.70520664  0.62385047     0.92900
Al500      Al  0.27952628  0.75559361  0.56202596     1.55600
O501        O  0.43842723  0.74046452  0.59866033    -0.78800
C502        C  0.30126197  0.80586856  0.00073672     0.97100
C503        C  0.30165589  0.65556074  0.54042573     0.92000
O504        O  0.33713750  0.65358853  0.56208342    -0.84100
O505        O  0.14221960  0.13548495  0.69465498    -0.83600
C506        C  0.35613666  0.18193520  0.67620371     0.95800
O507        O  0.32131801  0.21568071  0.68187334    -0.72700
O508        O  0.23839601  0.21801310  0.64512084    -0.76300
Al509      Al  0.24549965  0.21041139  0.69012668     1.49000
C510        C  0.20487493  0.19944628  0.62617422     0.91000
O511        O  0.24444882  0.07785129  0.63999146    -0.82500
O512        O  0.24689433  0.07608274  0.73790136    -0.76100
Al513      Al  0.19510032  0.10882203  0.66825539     1.90100
O514        O  0.29582418  0.05144171  0.67988358    -0.75100
O515        O  0.30926176  0.15663761  0.74566626    -0.75000
O516        O  0.34864805  0.13644413  0.68424311    -0.80600
O517        O  0.25271193  0.21656333  0.73538233    -0.78800
O518        O  0.24554460  0.14303196  0.68956398    -1.15000
O519        O  0.16968368  0.21469984  0.69828821    -0.74200
C520        C  0.13458598  0.18076936  0.70308203     0.96500
C521        C  0.27601664  0.04539244  0.65152782     0.92900
Al522      Al  0.29609585  0.10840084  0.71025310     1.55600
O523        O  0.18163471  0.15864814  0.63375125    -0.78800
C524        C  0.28600306  0.19694341  0.75404707     0.97100
C525        C  0.21603772  0.04347063  0.72580844     0.92000
O526        O  0.19588263  0.05042874  0.69762564    -0.84100
O527        O  0.34846686  0.37001342  0.94369037    -0.83600
C528        C  0.13497168  0.32592671  0.92729101     0.95800
O529        O  0.16955418  0.29163287  0.93212039    -0.72700
O530        O  0.25254284  0.28690016  0.89575458    -0.76300
Al531      Al  0.24499971  0.29567162  0.94076361     1.49000
C532        C  0.28454722  0.30607230  0.87616884     0.91000
O533        O  0.24477977  0.42792201  0.89048677    -0.82500
O534        O  0.24700177  0.43071167  0.98850823    -0.76100
Al535      Al  0.29514356  0.39698326  0.91804665     1.90100
O536        O  0.19616572  0.45585481  0.93098249    -0.75100
O537        O  0.18355174  0.35092280  0.49694047    -0.75000
O538        O  0.14269970  0.37104493  0.93610841    -0.80600
O539        O  0.23716661  0.28908810  0.98586864    -0.78800
O540        O  0.24552408  0.36320422  0.94012411    -1.15000
O541        O  0.32047393  0.29115642  0.94946580    -0.74200
C542        C  0.35567801  0.32525315  0.95334304     0.96500
C543        C  0.21499390  0.46137799  0.90239211     0.92900
Al544      Al  0.19631083  0.39870366  0.96139965     1.55600
O545        O  0.30697878  0.34744658  0.88328191    -0.78800
C546        C  0.20515303  0.30955539  0.50482514     0.97100
C547        C  0.27796691  0.46280285  0.97597249     0.92000
O548        O  0.29647439  0.45551026  0.94745091    -0.84100
O549        O  0.92067690  0.31829535  0.83812910    -0.83600
C550        C  0.79477084  0.15642313  0.79275635     0.95800
O551        O  0.82991253  0.15374807  0.81456014    -0.72700
O552        O  0.91887176  0.19174106  0.79075279    -0.76300
Al553      Al  0.87879292  0.20192501  0.83041494     1.49000
C554        C  0.94484113  0.22572951  0.77579781     0.91000
O555        O  0.84372563  0.30575259  0.75732689    -0.82500
O556        O  0.77315048  0.31465898  0.84336561    -0.76100
Al557      Al  0.87950287  0.30907122  0.79887125     1.90100
O558        O  0.76451242  0.29755608  0.77725883    -0.75100
O559        O  0.76476692  0.21529868  0.85242277    -0.75000
O560        O  0.77168392  0.19797690  0.78635076    -0.80600
O561        O  0.84410329  0.20614201  0.87227945    -0.78800
O562        O  0.84469214  0.25579314  0.81470336    -1.15000
O563        O  0.93447337  0.23805804  0.84915491    -0.74200
C564        C  0.94613118  0.28391064  0.85301575     0.96500
C565        C  0.79428500  0.30655818  0.75341982     0.92900
Al566      Al  0.77443046  0.25632431  0.81483858     1.55600
O567        O  0.93396053  0.27179113  0.77962382    -0.78800
C568        C  0.79467970  0.20609385  0.87626776     0.97100
C569        C  0.79700208  0.35589578  0.83713780     0.92000
O570        O  0.83209877  0.35815198  0.81537380    -0.84100
O571        O  0.57261698  0.19317201  0.58890127    -0.83600
C572        C  0.69572639  0.35718444  0.54238187     0.95800
O573        O  0.66034082  0.35940024  0.56395541    -0.72700
O574        O  0.57226282  0.31909704  0.54017396    -0.76300
Al575      Al  0.61221238  0.31020097  0.57995592     1.49000
C576        C  0.54657111  0.28443588  0.52565479     0.91000
O577        O  0.64805314  0.20592767  0.00768596    -0.82500
O578        O  0.72082656  0.19955794  0.59313875    -0.76100
Al579      Al  0.61316585  0.20258387  0.54937702     1.90100
O580        O  0.72756513  0.21654182  0.52704209    -0.75100
O581        O  0.72655535  0.29888020  0.60221823    -0.75000
O582        O  0.71896307  0.31580776  0.53601994    -0.80600
O583        O  0.64702699  0.30675142  0.62184310    -0.78800
O584        O  0.64723282  0.25674315  0.56465213    -1.15000
O585        O  0.55665739  0.27333117  0.59874832    -0.74200
C586        C  0.54588043  0.22730811  0.60305614     0.96500
C587        C  0.69739843  0.20623821  0.00350292     0.92900
Al588      Al  0.71753409  0.25763331  0.56461005     1.55600
O589        O  0.55784631  0.23858791  0.53005984    -0.78800
C590        C  0.69645549  0.30748632  0.62597534     0.97100
C591        C  0.69796161  0.15777761  0.58713106     0.92000
O592        O  0.66185149  0.15466816  0.56594840    -0.84100
C593        C  0.69056891  0.19871481  0.94244903    -0.15100
C594        C  0.72134135  0.19704755  0.97097273     0.07000
C595        C  0.77652818  0.19219288  0.96800781    -0.15100
C596        C  0.80065056  0.19240716  0.93718989    -0.15100
C597        C  0.77004952  0.19744405  0.90872458     0.07000
C598        C  0.71463598  0.19891845  0.91168375    -0.15100
H599        H  0.64811691  0.20247604  0.94390133     0.11000
H600        H  0.80137907  0.19036935  0.48961192     0.11000
H601        H  0.84325126  0.19088653  0.93574145     0.11000
H602        H  0.68971704  0.20248303  0.89020289     0.11000
C603        C  0.71433208  0.31797031  0.71789600    -0.15100
C604        C  0.76973356  0.31566918  0.72093439     0.07000
C605        C  0.80041359  0.31694497  0.69247276    -0.15100
C606        C  0.77624056  0.31719659  0.66164412    -0.15100
C607        C  0.72082163  0.31611312  0.65856832     0.07000
C608        C  0.69012167  0.31815367  0.68702586    -0.15100
H609        H  0.68946304  0.31743745  0.73942606     0.11000
H610        H  0.84302341  0.31533536  0.69396960     0.11000
H611        H  0.80117904  0.31601003  0.64015910     0.11000
H612        H  0.64748399  0.31753159  0.68549070     0.11000
C613        C  0.46857859  0.25516091  0.49339396    -0.15100
C614        C  0.50046767  0.29554838  0.50466397     0.07000
C615        C  0.48529235  0.34539725  0.99774529    -0.15100
C616        C  0.43869343  0.35466428  0.98044821    -0.15100
C617        C  0.40612279  0.31427175  0.96999613     0.07000
C618        C  0.42172655  0.26443939  0.97645536    -0.15100
H619        H  0.47900935  0.21610413  0.49844170     0.11000
H620        H  0.50880360  0.37714357  0.00621217     0.11000
H621        H  0.42754206  0.39370387  0.97596223     0.11000
H622        H  0.39757028  0.23270850  0.96869217     0.11000
C623        C  0.00711963  0.34532182  0.88084175    -0.15100
C624        C  0.99200499  0.29536100  0.87414495     0.07000
C625        C  0.02330296  0.25516150  0.88622580    -0.15100
C626        C  0.06940432  0.26473021  0.90390386    -0.15100
C627        C  0.08489569  0.31468201  0.91023115     0.07000
C628        C  0.05297897  0.35488595  0.89884567    -0.15100
H629        H  0.98405397  0.37692324  0.87175605     0.11000
H630        H  0.01291882  0.21602436  0.88135499     0.11000
H631        H  0.09312541  0.23312069  0.91229932     0.11000
H632        H  0.06410587  0.39399706  0.90314729     0.11000
C633        C  0.44103405  0.15496664  0.65009811    -0.15100
C634        C  0.40628752  0.19428456  0.65931700     0.07000
C635        C  0.41914572  0.24427097  0.65095806    -0.15100
C636        C  0.46528818  0.25465493  0.63352153    -0.15100
C637        C  0.49950165  0.21526570  0.62372457     0.07000
C638        C  0.48697414  0.16531564  0.63237173    -0.15100
H639        H  0.43223255  0.11581425  0.65600896     0.11000
H640        H  0.39327773  0.27527287  0.65751678     0.11000
H641        H  0.47347803  0.29371576  0.62704183     0.11000
H642        H  0.51227422  0.13424823  0.62512589     0.11000
C643        C  0.04757210  0.15392828  0.72682768    -0.15100
C644        C  0.08396200  0.19291073  0.71938425     0.07000
C645        C  0.07243318  0.24253039  0.72909380    -0.15100
C646        C  0.02634547  0.25282171  0.74645916    -0.15100
C647        C  0.99078463  0.21369470  0.75486740     0.07000
C648        C  0.00160080  0.16417017  0.74457026    -0.15100
H649        H  0.05520146  0.11511120  0.71962489     0.11000
H650        H  0.09947257  0.27328921  0.72382389     0.11000
H651        H  0.01941996  0.29153423  0.75416851     0.11000
H652        H  0.97499552  0.13338239  0.75057256     0.11000
C653        C  0.18673553  0.20238418  0.56553039    -0.15100
C654        C  0.19388620  0.22756118  0.59541446     0.07000
C655        C  0.19725605  0.28102370  0.59542661    -0.15100
C656        C  0.19659824  0.30859608  0.56603529    -0.15100
C657        C  0.19374775  0.28307481  0.53603727     0.07000
C658        C  0.18740858  0.22989087  0.53606742    -0.15100
H659        H  0.18427334  0.16138256  0.56480422     0.11000
H660        H  0.20257922  0.30140536  0.61825155     0.11000
H661        H  0.20195199  0.34935421  0.56666475     0.11000
H662        H  0.18514161  0.20939826  0.51309712     0.11000
C663        C  0.29146057  0.22464226  0.84489950    -0.15100
C664        C  0.29486834  0.27812643  0.84517488     0.07000
C665        C  0.30266969  0.30355419  0.81539812    -0.15100
C666        C  0.30283412  0.27634212  0.78581067    -0.15100
C667        C  0.29682008  0.22313737  0.78549758     0.07000
C668        C  0.29302738  0.19736419  0.81539804    -0.15100
H669        H  0.28571627  0.20396020  0.86757307     0.11000
H670        H  0.30526299  0.34455040  0.81481520     0.11000
H671        H  0.30560002  0.29707311  0.76293282     0.11000
H672        H  0.28773158  0.15659270  0.81581756     0.11000
C673        C  0.27517157  0.94667969  0.58437258    -0.15100
C674        C  0.28652932  0.90233279  0.60207503     0.07000
C675        C  0.29633162  0.90543557  0.63581564    -0.15100
C676        C  0.29530716  0.95251442  0.65160929    -0.15100
C677        C  0.28359945  0.99703145  0.63395368     0.07000
C678        C  0.27281540  0.99353539  0.60026016    -0.15100
H679        H  0.26890699  0.94503657  0.55810584     0.11000
H680        H  0.30684050  0.87179286  0.64962847     0.11000
H681        H  0.30275236  0.95397848  0.67775445     0.11000
H682        H  0.26301121  0.02709237  0.58617713     0.11000
C683        C  0.28012148  0.56391517  0.54170222    -0.15100
C684        C  0.28946688  0.60797799  0.52323580     0.07000
C685        C  0.29697458  0.60391125  0.98932205    -0.15100
C686        C  0.29577310  0.55621409  0.97417507    -0.15100
C687        C  0.28610318  0.51201575  0.99264935     0.07000
C688        C  0.27756502  0.51649443  0.52650204    -0.15100
H689        H  0.27544463  0.56624204  0.56805344     0.11000
H690        H  0.30574955  0.63730502  0.97482496     0.11000
H691        H  0.30141452  0.55399424  0.94790723     0.11000
H692        H  0.26927996  0.48325148  0.54124665     0.11000
C693        C  0.22076358  0.98979062  0.77610456    -0.15100
C694        C  0.21028304  0.99408621  0.74243635     0.07000
C695        C  0.20140737  0.94976537  0.72397613    -0.15100
C696        C  0.20248926  0.90204080  0.73905391    -0.15100
C697        C  0.21170112  0.89814630  0.77282985     0.07000
C698        C  0.22068424  0.94231005  0.79122365    -0.15100
H699        H  0.22855584  0.02321480  0.79077571     0.11000
H700        H  0.19447647  0.95196389  0.69779906     0.11000
H701        H  0.19381966  0.86848444  0.72469369     0.11000
H702        H  0.22648173  0.94002204  0.81751501     0.11000
C703        C  0.19831333  0.81979479  0.93400658    -0.15100
C704        C  0.22816513  0.81094979  0.90575756     0.07000
C705        C  0.28349348  0.80701603  0.90875748    -0.15100
C706        C  0.30800609  0.80862924  0.93949308    -0.15100
C707        C  0.27772949  0.81415166  0.96790356     0.07000
C708        C  0.22285442  0.82143031  0.96475053    -0.15100
H709        H  0.15584031  0.82338524  0.93251593     0.11000
H710        H  0.30785173  0.80044474  0.88742720     0.11000
H711        H  0.35020588  0.80281490  0.94112049     0.11000
H712        H  0.19843800  0.82623785  0.48625515     0.11000
C713        C  0.30324837  0.69167366  0.68480057    -0.15100
C714        C  0.27310208  0.69523859  0.65607590     0.07000
C715        C  0.21757159  0.69387364  0.65865189    -0.15100
C716        C  0.19284933  0.69253412  0.68933376    -0.15100
C717        C  0.22311378  0.69246985  0.71812963     0.07000
C718        C  0.27857054  0.69022647  0.71542515    -0.15100
H719        H  0.34590727  0.69233389  0.68372505     0.11000
H720        H  0.19301410  0.69606048  0.63693557     0.11000
H721        H  0.15022763  0.69409470  0.69051196     0.11000
H722        H  0.30324796  0.68965747  0.73713329     0.11000
C723        C  0.20277502  0.60230172  0.88670301    -0.15100
C724        C  0.21082180  0.60464809  0.85277130     0.07000
C725        C  0.21881592  0.55966640  0.83513331    -0.15100
C726        C  0.21886388  0.51286917  0.85113467    -0.15100
C727        C  0.20929205  0.51009892  0.88494725     0.07000
C728        C  0.20157039  0.55527256  0.90266360    -0.15100
H729        H  0.19507120  0.63655179  0.90053011     0.11000
H730        H  0.22391394  0.56078288  0.80877764     0.11000
H731        H  0.22590556  0.47876956  0.83702630     0.11000
H732        H  0.19543996  0.55427848  0.92892362     0.11000
C733        C  0.55828883  0.65666819  0.97978302    -0.15100
C734        C  0.58933175  0.69665122  0.96716858     0.07000
C735        C  0.57251748  0.74663176  0.47178782    -0.15100
C736        C  0.52647056  0.75646281  0.48941990    -0.15100
C737        C  0.49659944  0.71655226  0.50322967     0.07000
C738        C  0.51259109  0.66651221  0.99774889    -0.15100
H739        H  0.57021622  0.61754141  0.97668420     0.11000
H740        H  0.59528402  0.77808120  0.46220078     0.11000
H741        H  0.51514256  0.79564351  0.49302298     0.11000
H742        H  0.49056192  0.63506441  0.00797823     0.11000
C743        C  0.92667778  0.74389029  0.90273852    -0.15100
C744        C  0.91262731  0.69432275  0.91128400     0.07000
C745        C  0.94610122  0.65403297  0.90198287    -0.15100
C746        C  0.99154847  0.66298455  0.88347171    -0.15100
C747        C  0.00481903  0.71247406  0.87422445     0.07000
C748        C  0.97236180  0.75288153  0.88461939    -0.15100
H749        H  0.90189057  0.77561082  0.90948190     0.11000
H750        H  0.93637486  0.61518253  0.90816151     0.11000
H751        H  0.01569377  0.63122990  0.87595331     0.11000
H752        H  0.98131742  0.79168407  0.87788505     0.11000
C753        C  0.79450901  0.40605678  0.88886230    -0.15100
C754        C  0.78619513  0.40308395  0.85492986     0.07000
C755        C  0.77873960  0.44785266  0.83687775    -0.15100
C756        C  0.77899732  0.49494218  0.85243845    -0.15100
C757        C  0.78820678  0.49832744  0.88628724     0.07000
C758        C  0.79594135  0.45343396  0.90441488    -0.15100
H759        H  0.80202368  0.37202543  0.90302049     0.11000
H760        H  0.77363795  0.44632439  0.81051249     0.11000
H761        H  0.77219013  0.52879132  0.83796869     0.11000
H762        H  0.80205930  0.45490704  0.93068703     0.11000
C763        C  0.70245957  0.45449973  0.97502097    -0.15100
C764        C  0.70967082  0.49940645  0.99316195     0.07000
C765        C  0.71659420  0.49620591  0.52722470    -0.15100
C766        C  0.71477825  0.44921442  0.54296908    -0.15100
C767        C  0.70772155  0.40443350  0.52487023     0.07000
C768        C  0.70203665  0.40725352  0.49074560    -0.15100
H769        H  0.69817047  0.45585521  0.94860866     0.11000
H770        H  0.72306034  0.53010145  0.54168794     0.11000
H771        H  0.71813266  0.44776902  0.56944251     0.11000
H772        H  0.69512928  0.37321260  0.47649751     0.11000
C773        C  0.55119568  0.85841367  0.65265863    -0.15100
C774        C  0.58651504  0.81908269  0.66112107     0.07000
C775        C  0.57429695  0.76934074  0.65197908    -0.15100
C776        C  0.52863963  0.75919722  0.63405223    -0.15100
C777        C  0.49424454  0.79859757  0.62449710     0.07000
C778        C  0.50561352  0.84829866  0.63433256    -0.15100
H779        H  0.55952287  0.89734659  0.65937326     0.11000
H780        H  0.60058034  0.73834794  0.65803615     0.11000
H781        H  0.52124149  0.72033704  0.62676874     0.11000
H782        H  0.47987783  0.87929606  0.62742696     0.11000
C783        C  0.94473115  0.85426960  0.72728640    -0.15100
C784        C  0.90991919  0.81517713  0.71753669     0.07000
C785        C  0.92279631  0.76494628  0.72520652    -0.15100
C786        C  0.96880075  0.75414876  0.74280609    -0.15100
C787        C  0.00276579  0.79336575  0.75345937     0.07000
C788        C  0.99048045  0.84350866  0.74520425    -0.15100
H789        H  0.93596536  0.89357097  0.72182234     0.11000
H790        H  0.89693463  0.73409581  0.71811495     0.11000
H791        H  0.97695698  0.71492581  0.74884975     0.11000
H792        H  0.01572464  0.87442187  0.75300503     0.11000
C793        C  0.80261903  0.81004012  0.56407788    -0.15100
C794        C  0.79643925  0.78487315  0.59404843     0.07000
C795        C  0.79431852  0.73138258  0.59431322    -0.15100
C796        C  0.79587190  0.70360328  0.56508547    -0.15100
C797        C  0.79826258  0.72893050  0.53500052     0.07000
C798        C  0.80277267  0.78228527  0.53475602    -0.15100
H799        H  0.80399198  0.85107944  0.56319457     0.11000
H800        H  0.78964288  0.71107731  0.61722905     0.11000
H801        H  0.79176635  0.66272104  0.56588622     0.11000
H802        H  0.80449043  0.80262182  0.01168823     0.11000
C803        C  0.69579685  0.73202759  0.78452465    -0.15100
C804        C  0.70138056  0.78526769  0.78456646     0.07000
C805        C  0.70525420  0.81072230  0.81451495    -0.15100
C806        C  0.70698394  0.78311761  0.84382546    -0.15100
C807        C  0.70363971  0.72967229  0.84379276     0.07000
C808        C  0.69613118  0.70445190  0.81395101    -0.15100
H809        H  0.69302052  0.71163264  0.76153680     0.11000
H810        H  0.71030042  0.85152102  0.81512111     0.11000
H811        H  0.71264801  0.80351559  0.86661290     0.11000
H812        H  0.69374775  0.66344679  0.81323291     0.11000
C813        C  0.77872635  0.01737138  0.77735158    -0.15100
C814        C  0.78754964  0.01442077  0.74349326     0.07000
C815        C  0.79391262  0.05952812  0.72541931    -0.15100
C816        C  0.79144062  0.10676517  0.74101894    -0.15100
C817        C  0.78359267  0.10937088  0.77495354     0.07000
C818        C  0.77750477  0.06436018  0.79297393    -0.15100
H819        H  0.77296664  0.98327844  0.79175455     0.11000
H820        H  0.79974974  0.05829490  0.69914306     0.11000
H821        H  0.79804152  0.14101570  0.72691218     0.11000
H822        H  0.77294575  0.06564422  0.81936658     0.11000
C823        C  0.71882363  0.06640140  0.58657475    -0.15100
C824        C  0.71101987  0.11096815  0.60469941     0.07000
C825        C  0.70434739  0.10792628  0.63871298    -0.15100
C826        C  0.70422124  0.06057298  0.65427570    -0.15100
C827        C  0.71188148  0.01583630  0.63607913     0.07000
C828        C  0.72006372  0.01932168  0.60217157    -0.15100
H829        H  0.72280178  0.06805195  0.56015242     0.11000
H830        H  0.69676398  0.14182311  0.65292480     0.11000
H831        H  0.69888074  0.05898024  0.68058711     0.11000
H832        H  0.72685639  0.98555750  0.58768316     0.11000
loop_ 
_geom_bond_atom_site_label_1 
_geom_bond_atom_site_label_2 
_geom_bond_distance 
_geom_bond_site_symmetry_2 
_ccdc_geom_bond_type 
O1           C16   1.258       .  A
O1           Al9   1.857       .  S
C2           O12   1.257       .  A
C2            O3   1.275       .  A
C2          C358   1.479       .  S
O3           Al5   1.949       .  S
O4            C6   1.247       .  A
O4           Al5   1.856       .  S
Al5          O13   1.856       .  S
Al5          O15   1.957       .  S
Al5          O14   1.775       .  S
C6           O19   1.264       .  A
C6          C378   1.480       .  S
O7           C17   1.262       .  A
O7           Al9   1.888       .  S
O8           C21   1.261       .  A
O8          Al18   1.885       .  S
Al9          O22   1.952       .  S
Al9          O19   1.953       .  S
Al9          O14   1.785       .  S
O10          C17   1.270       .  A
O10         Al18   1.950       .  S
O11          C20   1.263       .  A
O11         Al18   1.947       .  S
O12         Al18   1.859       .  S
O13          C20   1.247       .  A
O14         Al18   1.784       .  S
O15          C16   1.276       .  A
C16         C368   1.482       .  S
C17         C411   1.474   1_565  S
C20         C388   1.476       .  S
C21          O22   1.270       .  A
C21         C398   1.474   1_565  S
O23          C38   1.258       .  A
O23         Al31   1.854       .  S
C24          O34   1.258       .  A
C24          O25   1.276       .  A
C24         C328   1.482       .  S
O25         Al27   1.955       .  S
O26          C28   1.246       .  A
O26         Al27   1.853       .  S
Al27         O35   1.856       .  S
Al27         O37   1.959       .  S
Al27         O36   1.777       .  S
C28          O41   1.263       .  A
C28         C391   1.481       .  S
O29          C39   1.262       .  A
O29         Al31   1.887       .  S
O30          C43   1.262       .  A
O30         Al40   1.889       .  S
Al31         O44   1.950       .  S
Al31         O41   1.951       .  S
Al31         O36   1.785       .  S
O32          C39   1.270       .  A
O32         Al40   1.953       .  S
O33          C42   1.263   1_556  A
O33        Al456   1.949       .  S
O34         Al40   1.856       .  S
O35         C458   1.246       .  A
O36         Al40   1.785       .  S
O37          C38   1.277       .  A
C38         C318   1.481       .  S
C39         C341   1.476       .  S
Al40        O449   1.949       .  S
C42         O451   1.246   1_554  A
C42         C381   1.478       .  S
C43          O44   1.270       .  A
C43         C348   1.475       .  S
O45          C60   1.268       .  A
O45         Al53   1.930       .  S
C46          O56   1.268       .  A
C46          O47   1.261       .  A
C46         C308   1.465       .  S
O47         Al49   1.895       .  S
O48          C50   1.269       .  A
O48         Al49   1.936       .  S
Al49         O57   1.935       .  S
Al49         O59   1.874       .  S
Al49         O58   1.783       .  S
C50          O63   1.254       .  A
C50         C331   1.482       .  S
O51          C61   1.264       .  A
O51         Al53   1.927       .  S
O52          C65   1.269       .  A
O52         Al62   1.927       .  S
Al53         O66   1.888       .  S
Al53         O63   1.865       .  S
Al53         O58   1.782       .  S
O54          C61   1.255       .  A
O54         Al62   1.891       .  S
O55          C64   1.255       .  A
O55         Al62   1.892       .  S
O56         Al62   1.924       .  S
O57          C64   1.266       .  A
O58         Al62   1.783       .  S
O59          C60   1.256       .  A
C60         C371   1.482       .  S
C61         C288   1.484       .  S
C64         C301   1.487       .  S
C65          O66   1.259       .  A
C65         C281   1.465       .  S
O67          C82   1.268       .  A
O67         Al75   1.930       .  S
C68          O78   1.268       .  A
C68          O69   1.260       .  A
C68         C258   1.465       .  S
O69         Al71   1.896       .  S
O70          C72   1.267       .  A
O70         Al71   1.929       .  S
Al71         O81   1.874       .  S
Al71        O495   1.922       .  S
Al71         O80   1.785       .  S
C72          O85   1.256       .  A
C72         C361   1.479       .  S
O73          C83   1.265       .  A
O73         Al75   1.929       .  S
O74          C87   1.269       .  A
O74         Al84   1.930       .  S
Al75         O88   1.896       .  S
Al75         O85   1.870       .  S
Al75         O80   1.780       .  S
O76          C83   1.256       .  A
O76         Al84   1.897       .  S
O77         C502   1.256       .  A
O77         Al84   1.895       .  S
O78         Al84   1.924       .  S
O79          C86   1.264       .  A
O79        Al487   1.922       .  S
O80         Al84   1.782       .  S
O81          C82   1.255       .  A
C82         C321   1.482       .  S
C83         C298   1.487       .  S
C86         O493   1.256       .  A
C86         C291   1.481       .  S
C87          O88   1.260       .  A
C87         C268   1.470       .  S
O89         C104   1.258       .  A
O89         Al97   1.862       .  S
C90         O100   1.257       .  A
C90          O91   1.276       .  A
C90         C218   1.484       .  S
O91         Al93   1.958       .  S
O92          C94   1.247       .  A
O92         Al93   1.855       .  S
Al93        O101   1.862       .  S
Al93        O103   1.956       .  S
Al93        O102   1.777       .  S
C94         O107   1.264       .  A
C94         C238   1.483       .  S
O95         C105   1.262       .  A
O95         Al97   1.891       .  S
O96         C109   1.262       .  A
O96        Al106   1.887       .  S
Al97        O110   1.950       .  S
Al97        O107   1.954       .  S
Al97        O102   1.788       .  S
O98         C105   1.270       .  A
O98        Al106   1.948       .  S
O99         C108   1.264       .  A
O99        Al106   1.953       .  S
O100       Al106   1.858       .  S
O101        C108   1.248       .  A
O102       Al106   1.785       .  S
O103        C104   1.276       .  A
C104        C228   1.483       .  S
C105        C261   1.476   1_545  S
C108        C251   1.482       .  S
C109        O110   1.270       .  A
C109        C278   1.475   1_545  S
O111        C126   1.257       .  A
O111       Al119   1.850       .  S
C112        O122   1.258       .  A
C112        O113   1.275       .  A
C112        C211   1.476       .  S
O113       Al115   1.947       .  S
O114        C116   1.247       .  A
O114       Al115   1.861       .  S
Al115       O123   1.859       .  S
Al115       O125   1.950       .  S
Al115       O124   1.781       .  S
C116        O129   1.263       .  A
C116        C248   1.488       .  S
O117        C127   1.261       .  A
O117       Al119   1.885       .  S
O118        C131   1.262       .  A
O118       Al128   1.891       .  S
Al119       O132   1.955       .  S
Al119       O129   1.953       .  S
Al119       O124   1.786       .  S
O120        C127   1.270       .  A
O120       Al128   1.951       .  S
O121        C130   1.262   1_556  A
O121       Al544   1.947       .  S
O122       Al128   1.853       .  S
O123        C546   1.247       .  A
O124       Al128   1.788       .  S
O125        C126   1.276       .  A
C126        C201   1.476       .  S
C127        C311   1.475       .  S
Al128       O537   1.947       .  S
C130        O539   1.247   1_554  A
C130        C241   1.481       .  S
C131        O132   1.271       .  A
C131        C271   1.479       .  S
O133        C148   1.267       .  A
O133       Al141   1.925       .  S
C134        O144   1.269       .  A
C134        O135   1.259       .  A
C134        C401   1.465       .  S
O135       Al137   1.887       .  S
O136        C138   1.268       .  A
O136       Al137   1.932       .  S
Al137       O145   1.927       .  S
Al137       O147   1.865       .  S
Al137       O146   1.782       .  S
C138        O151   1.256       .  A
C138        C231   1.482       .  S
O139        C149   1.264       .  A
O139       Al141   1.922       .  S
O140        C153   1.269       .  A
O140       Al150   1.930       .  S
Al141       O154   1.893       .  S
Al141       O151   1.871       .  S
Al141       O146   1.780       .  S
O142        C149   1.255       .  A
O142       Al150   1.895       .  S
O143        C152   1.255       .  A
O143       Al150   1.892       .  S
O144       Al150   1.930       .  S
O145        C152   1.265       .  A
O146       Al150   1.782       .  S
O147        C148   1.254       .  A
C148        C208   1.477       .  S
C149        C188   1.482       .  S
C152        C181   1.483       .  S
C153        O154   1.260       .  A
C153        C338   1.467       .  S
O155        C170   1.268       .  A
O155       Al163   1.931       .  S
C156        O166   1.268       .  A
C156        O157   1.260       .  A
C156        C351   1.467       .  S
O157       Al159   1.897       .  S
O158        C160   1.268       .  A
O158       Al159   1.925       .  S
Al159       O167   1.923       .  S
Al159       O169   1.876       .  S
Al159       O168   1.781       .  S
C160        O173   1.255       .  A
C160        C198   1.477       .  S
O161        C171   1.264       .  A
O161       Al579   1.921       .  S
O162        C175   1.268       .  A
O162       Al172   1.924       .  S
Al163       O176   1.891       .  S
Al163       O173   1.867       .  S
Al163       O577   1.921       .  S
Al163       O168   1.780       .  S
O164        C587   1.256       .  A
O164       Al172   1.896       .  S
O165        C174   1.257       .  A
O165       Al172   1.894       .  S
O166       Al172   1.926       .  S
O167        C174   1.265       .  A
O168       Al172   1.783       .  S
O169        C170   1.256       .  A
C170        C221   1.483       .  S
C171        O580   1.256       .  A
C171        C178   1.481       .  S
C174        C191   1.482       .  S
C175        O176   1.260       .  A
C175        C408   1.464       .  S
C177        C178   1.400       .  A
C177        C182   1.397       .  A
C177        H183   1.083       .  S
C178        C179   1.411       .  A
C179        C180   1.400       .  A
C179        H600   1.083       .  S
C180        C181   1.401       .  A
C180        H185   1.083       .  S
C181        C182   1.412       .  A
C182        H186   1.083       .  S
H184        C595   1.083       .  S
C187        C188   1.412       .  A
C187        C192   1.399       .  A
C187        H193   1.083       .  S
C188        C189   1.400       .  A
C189        C190   1.397       .  A
C189        H194   1.083       .  S
C190        C191   1.411       .  A
C190        H195   1.083       .  S
C191        C192   1.401       .  A
C192        H196   1.083       .  S
C197        C198   1.413   1_556  A
C197        C618   1.394       .  A
C197        H203   1.083       .  S
C198        C615   1.398   1_554  A
C199        C200   1.396       .  A
C199        C614   1.398       .  A
C199        H204   1.083       .  S
C200        C201   1.412       .  A
C200        H205   1.083       .  S
C201        C202   1.397       .  A
C202        C613   1.394       .  A
C202        H206   1.083       .  S
C207        C208   1.398   1_455  A
C207        C212   1.396       .  A
C207        H213   1.083   1_455  S
C208        C209   1.412   1_655  A
C209        C210   1.395       .  A
C209        H214   1.083       .  S
C210        C211   1.398       .  A
C210        H215   1.083       .  S
C211        C212   1.412       .  A
C212        H216   1.083       .  S
C217        C218   1.413       .  A
C217        C222   1.400       .  A
C217        H223   1.083       .  S
C218        C219   1.399       .  A
C219        C220   1.398       .  A
C219        H224   1.083       .  S
C220        C221   1.413       .  A
C220        H225   1.083       .  S
C221        C222   1.399       .  A
C222        H226   1.083       .  S
C227        C228   1.414       .  A
C227        C232   1.401       .  A
C227        H233   1.083       .  S
C228        C229   1.399       .  A
C229        C230   1.396       .  A
C229        H234   1.083       .  S
C230        C231   1.412   1_455  A
C230        H235   1.083       .  S
C231        C232   1.400   1_655  A
C232        H236   1.083   1_455  S
C237        C238   1.400       .  A
C237        C242   1.403       .  A
C237        H243   1.083       .  S
C238        C239   1.412       .  A
C239        C240   1.402       .  A
C239        H244   1.083       .  S
C240        C241   1.399       .  A
C240        H245   1.083       .  S
C241        C242   1.411       .  A
C242        H246   1.083       .  S
C247        C248   1.413       .  A
C247        C252   1.403       .  A
C247        H253   1.083       .  S
C248        C249   1.401       .  A
C249        C250   1.405       .  A
C249        H254   1.083       .  S
C250        C251   1.411       .  A
C250        H255   1.083       .  S
C251        C252   1.399       .  A
C252        H256   1.083       .  S
C257        C258   1.403       .  A
C257        C262   1.397       .  A
C257        H263   1.084       .  S
C258        C259   1.400       .  A
C259        C260   1.399       .  A
C259        H264   1.083       .  S
C260        C261   1.408       .  A
C260        H265   1.083       .  S
C261        C262   1.404       .  A
C262        H266   1.083   1_565  S
C267        C268   1.404       .  A
C267        C272   1.397       .  A
C267        H273   1.084       .  S
C268        C685   1.401   1_554  A
C269        C270   1.402       .  A
C269        C684   1.401       .  A
C269        H274   1.083       .  S
C270        C271   1.409       .  A
C270        H275   1.083       .  S
C271        C688   1.404       .  A
C272        C687   1.404   1_554  A
C272        H276   1.083       .  S
C277        C278   1.403       .  A
C277        C282   1.395       .  A
C277        H283   1.083   1_565  S
C278        C279   1.408       .  A
C279        C280   1.400       .  A
C279        H284   1.083       .  S
C280        C281   1.400       .  A
C280        H285   1.083       .  S
C281        C282   1.404       .  A
C282        H286   1.084       .  S
C287        C288   1.401       .  A
C287        C292   1.399       .  A
C287        H293   1.083       .  S
C288        C289   1.412       .  A
C289        C290   1.398       .  A
C289        H294   1.083       .  S
C290        C291   1.400       .  A
C290        H295   1.083       .  S
C291        C292   1.411       .  A
C292        H712   1.083       .  S
H296        C708   1.083       .  S
C297        C298   1.400       .  A
C297        C302   1.399       .  A
C297        H303   1.083       .  S
C298        C299   1.413       .  A
C299        C300   1.402       .  A
C299        H304   1.083       .  S
C300        C301   1.401       .  A
C300        H305   1.083       .  S
C301        C302   1.412       .  A
C302        H306   1.083       .  S
C307        C308   1.401       .  A
C307        C312   1.400       .  A
C307        H313   1.083       .  S
C308        C309   1.403       .  A
C309        C310   1.395       .  A
C309        H314   1.084       .  S
C310        C311   1.403       .  A
C310        H315   1.083       .  S
C311        C312   1.408       .  A
C312        H316   1.083       .  S
C317        C318   1.412       .  A
C317        C322   1.398       .  A
C317        H323   1.083       .  S
C318        C735   1.399       .  A
C319        C320   1.398       .  A
C319        C734   1.399       .  A
C319        H324   1.083       .  S
C320        C321   1.413   1_556  A
C320        H325   1.083       .  S
C321        C738   1.399   1_554  A
C322        C737   1.399       .  A
C322        H326   1.083       .  S
C327        C328   1.398       .  A
C327        C332   1.396       .  A
C327        H333   1.083       .  S
C328        C329   1.414       .  A
C329        C330   1.400       .  A
C329        H334   1.083       .  S
C330        C331   1.399   1_655  A
C330        H335   1.083   1_655  S
C331        C332   1.413   1_455  A
C332        H336   1.083       .  S
C337        C338   1.402       .  A
C337        C342   1.402       .  A
C337        H343   1.083       .  S
C338        C339   1.403       .  A
C339        C340   1.395       .  A
C339        H344   1.084       .  S
C340        C341   1.403       .  A
C340        H345   1.083       .  S
C341        C342   1.409       .  A
C342        H346   1.083       .  S
C347        C348   1.408       .  A
C347        C768   1.401       .  A
C347        H353   1.083       .  S
C348        C765   1.402       .  A
C349        C350   1.396       .  A
C349        C764   1.402   1_554  A
C349        H354   1.083       .  S
C350        C351   1.404       .  A
C350        H355   1.084       .  S
C351        C352   1.401   1_554  A
C352        C763   1.401       .  A
C352        H356   1.083       .  S
C357        C358   1.413       .  A
C357        C362   1.400       .  A
C357        H363   1.083       .  S
C358        C359   1.398       .  A
C359        C360   1.393       .  A
C359        H364   1.083       .  S
C360        C361   1.411       .  A
C360        H365   1.083       .  S
C361        C362   1.400       .  A
C362        H366   1.083       .  S
C367        C368   1.413       .  A
C367        C372   1.399       .  A
C367        H373   1.083       .  S
C368        C369   1.399       .  A
C369        C370   1.398       .  A
C369        H374   1.083       .  S
C370        C371   1.413   1_655  A
C370        H375   1.083       .  S
C371        C372   1.399   1_455  A
C372        H376   1.083   1_655  S
C377        C378   1.400       .  A
C377        C382   1.403       .  A
C377        H383   1.083       .  S
C378        C379   1.411       .  A
C379        C380   1.400       .  A
C379        H384   1.083       .  S
C380        C381   1.398       .  A
C380        H385   1.083       .  S
C381        C382   1.411       .  A
C382        H802   1.083       .  S
H386        C798   1.083       .  S
C387        C388   1.411       .  A
C387        C392   1.403       .  A
C387        H393   1.083       .  S
C388        C389   1.397       .  A
C389        C390   1.400       .  A
C389        H394   1.083       .  S
C390        C391   1.411       .  A
C390        H395   1.083       .  S
C391        C392   1.400       .  A
C392        H396   1.083       .  S
C397        C398   1.402       .  A
C397        C402   1.394       .  A
C397        H403   1.083   1_545  S
C398        C399   1.408       .  A
C399        C400   1.401       .  A
C399        H404   1.083       .  S
C400        C401   1.401       .  A
C400        H405   1.083       .  S
C401        C402   1.404       .  A
C402        H406   1.084       .  S
C407        C408   1.403       .  A
C407        C412   1.395       .  A
C407        H413   1.084       .  S
C408        C409   1.400       .  A
C409        C410   1.400       .  A
C409        H414   1.083       .  S
C410        C411   1.408       .  A
C410        H415   1.083       .  S
C411        C412   1.402       .  A
C412        H416   1.083   1_545  S
O417        C432   1.258       .  A
O417       Al425   1.857       .  S
C418        O428   1.257       .  A
C418        O419   1.275       .  A
C418        C774   1.479       .  S
O419       Al421   1.949       .  S
O420        C422   1.247       .  A
O420       Al421   1.856       .  S
Al421       O429   1.856       .  S
Al421       O431   1.957       .  S
Al421       O430   1.775       .  S
C422        O435   1.264       .  A
C422        C794   1.480       .  S
O423        C433   1.262       .  A
O423       Al425   1.888       .  S
O424        C437   1.261       .  A
O424       Al434   1.885       .  S
Al425       O438   1.952       .  S
Al425       O435   1.953       .  S
Al425       O430   1.785       .  S
O426        C433   1.270       .  A
O426       Al434   1.950       .  S
O427        C436   1.263       .  A
O427       Al434   1.947       .  S
O428       Al434   1.859       .  S
O429        C436   1.247       .  A
O430       Al434   1.784       .  S
O431        C432   1.276       .  A
C432        C784   1.482       .  S
C433        C827   1.474   1_565  S
C436        C804   1.476       .  S
C437        O438   1.270       .  A
C437        C814   1.474   1_565  S
O439        C454   1.258       .  A
O439       Al447   1.854       .  S
C440        O450   1.258       .  A
C440        O441   1.276       .  A
C440        C744   1.482       .  S
O441       Al443   1.955       .  S
O442        C444   1.246       .  A
O442       Al443   1.853       .  S
Al443       O451   1.856       .  S
Al443       O453   1.959       .  S
Al443       O452   1.777       .  S
C444        O457   1.263       .  A
C444        C807   1.481       .  S
O445        C455   1.262       .  A
O445       Al447   1.887       .  S
O446        C459   1.262       .  A
O446       Al456   1.889       .  S
Al447       O460   1.950       .  S
Al447       O457   1.951       .  S
Al447       O452   1.785       .  S
O448        C455   1.270       .  A
O448       Al456   1.953       .  S
O449        C458   1.263       .  A
O450       Al456   1.856       .  S
O452       Al456   1.785       .  S
O453        C454   1.277       .  A
C454        C734   1.481       .  S
C455        C757   1.476       .  S
C458        C797   1.478       .  S
C459        O460   1.270       .  A
C459        C764   1.475       .  S
O461        C476   1.268       .  A
O461       Al469   1.930       .  S
C462        O472   1.268       .  A
C462        O463   1.261       .  A
C462        C724   1.465       .  S
O463       Al465   1.895       .  S
O464        C466   1.269       .  A
O464       Al465   1.936       .  S
Al465       O473   1.935       .  S
Al465       O475   1.874       .  S
Al465       O474   1.783       .  S
C466        O479   1.254       .  A
C466        C747   1.482       .  S
O467        C477   1.264       .  A
O467       Al469   1.927       .  S
O468        C481   1.269       .  A
O468       Al478   1.927       .  S
Al469       O482   1.888       .  S
Al469       O479   1.865       .  S
Al469       O474   1.782       .  S
O470        C477   1.255       .  A
O470       Al478   1.891       .  S
O471        C480   1.255       .  A
O471       Al478   1.892       .  S
O472       Al478   1.924       .  S
O473        C480   1.266       .  A
O474       Al478   1.783       .  S
O475        C476   1.256       .  A
C476        C787   1.482       .  S
C477        C704   1.484       .  S
C480        C717   1.487       .  S
C481        O482   1.259       .  A
C481        C697   1.465       .  S
O483        C498   1.268       .  A
O483       Al491   1.930       .  S
C484        O494   1.268       .  A
C484        O485   1.260       .  A
C484        C674   1.465       .  S
O485       Al487   1.896       .  S
O486        C488   1.267       .  A
O486       Al487   1.929       .  S
Al487       O497   1.874       .  S
Al487       O496   1.785       .  S
C488        O501   1.256       .  A
C488        C777   1.479       .  S
O489        C499   1.265       .  A
O489       Al491   1.929       .  S
O490        C503   1.269       .  A
O490       Al500   1.930       .  S
Al491       O504   1.896       .  S
Al491       O501   1.870       .  S
Al491       O496   1.780       .  S
O492        C499   1.256       .  A
O492       Al500   1.897       .  S
O493       Al500   1.895       .  S
O494       Al500   1.924       .  S
O495        C502   1.264       .  A
O496       Al500   1.782       .  S
O497        C498   1.255       .  A
C498        C737   1.482       .  S
C499        C714   1.487       .  S
C502        C707   1.481   1_554  S
C503        O504   1.260       .  A
C503        C684   1.470       .  S
O505        C520   1.258       .  A
O505       Al513   1.862       .  S
C506        O516   1.257       .  A
C506        O507   1.276       .  A
C506        C634   1.484       .  S
O507       Al509   1.958       .  S
O508        C510   1.247       .  A
O508       Al509   1.855       .  S
Al509       O517   1.862       .  S
Al509       O519   1.956       .  S
Al509       O518   1.777       .  S
C510        O523   1.264       .  A
C510        C654   1.483       .  S
O511        C521   1.262       .  A
O511       Al513   1.891       .  S
O512        C525   1.262       .  A
O512       Al522   1.886       .  S
Al513       O526   1.950       .  S
Al513       O523   1.954       .  S
Al513       O518   1.788       .  S
O514        C521   1.270       .  A
O514       Al522   1.948       .  S
O515        C524   1.264       .  A
O515       Al522   1.953       .  S
O516       Al522   1.858       .  S
O517        C524   1.248       .  A
O518       Al522   1.785       .  S
O519        C520   1.276       .  A
C520        C644   1.483       .  S
C521        C677   1.476   1_545  S
C524        C667   1.482       .  S
C525        O526   1.270       .  A
C525        C694   1.475   1_545  S
O527        C542   1.257       .  A
O527       Al535   1.850       .  S
C528        O538   1.258       .  A
C528        O529   1.275       .  A
C528        C627   1.476       .  S
O529       Al531   1.947       .  S
O530        C532   1.247       .  A
O530       Al531   1.861       .  S
Al531       O539   1.859       .  S
Al531       O541   1.950       .  S
Al531       O540   1.781       .  S
C532        O545   1.263       .  A
C532        C664   1.488       .  S
O533        C543   1.261       .  A
O533       Al535   1.885       .  S
O534        C547   1.262       .  A
O534       Al544   1.891       .  S
Al535       O548   1.955       .  S
Al535       O545   1.953       .  S
Al535       O540   1.786       .  S
O536        C543   1.270       .  A
O536       Al544   1.951       .  S
O537        C546   1.262       .  A
O538       Al544   1.853       .  S
O540       Al544   1.788       .  S
O541        C542   1.276       .  A
C542        C617   1.476       .  S
C543        C727   1.475       .  S
C546        C657   1.481       .  S
C547        O548   1.271       .  A
C547        C687   1.479       .  S
O549        C564   1.267       .  A
O549       Al557   1.925       .  S
C550        O560   1.269       .  A
C550        O551   1.259       .  A
C550        C817   1.465       .  S
O551       Al553   1.887       .  S
O552        C554   1.268       .  A
O552       Al553   1.932       .  S
Al553       O561   1.927       .  S
Al553       O563   1.865       .  S
Al553       O562   1.782       .  S
C554        O567   1.256       .  A
C554        C647   1.482       .  S
O555        C565   1.264       .  A
O555       Al557   1.922       .  S
O556        C569   1.269       .  A
O556       Al566   1.930       .  S
Al557       O570   1.893       .  S
Al557       O567   1.871       .  S
Al557       O562   1.780       .  S
O558        C565   1.255       .  A
O558       Al566   1.895       .  S
O559        C568   1.255       .  A
O559       Al566   1.892       .  S
O560       Al566   1.930       .  S
O561        C568   1.265       .  A
O562       Al566   1.782       .  S
O563        C564   1.254       .  A
C564        C624   1.477       .  S
C565        C604   1.482       .  S
C568        C597   1.483       .  S
C569        O570   1.260       .  A
C569        C754   1.467       .  S
O571        C586   1.268       .  A
O571       Al579   1.931       .  S
C572        O582   1.268       .  A
C572        O573   1.260       .  A
C572        C767   1.467       .  S
O573       Al575   1.897       .  S
O574        C576   1.268       .  A
O574       Al575   1.925       .  S
Al575       O583   1.923       .  S
Al575       O585   1.876       .  S
Al575       O584   1.781       .  S
C576        O589   1.255       .  A
C576        C614   1.477       .  S
O577        C587   1.264       .  A
O578        C591   1.268       .  A
O578       Al588   1.924       .  S
Al579       O592   1.891       .  S
Al579       O589   1.867       .  S
Al579       O584   1.780       .  S
O580       Al588   1.896       .  S
O581        C590   1.257       .  A
O581       Al588   1.894       .  S
O582       Al588   1.926       .  S
O583        C590   1.265       .  A
O584       Al588   1.783       .  S
O585        C586   1.256       .  A
C586        C637   1.483       .  S
C587        C594   1.481   1_554  S
C590        C607   1.482       .  S
C591        O592   1.260       .  A
C591        C824   1.464       .  S
C593        C594   1.400       .  A
C593        C598   1.397       .  A
C593        H599   1.083       .  S
C594        C595   1.411       .  A
C595        C596   1.400       .  A
C596        C597   1.401       .  A
C596        H601   1.083       .  S
C597        C598   1.412       .  A
C598        H602   1.083       .  S
C603        C604   1.412       .  A
C603        C608   1.399       .  A
C603        H609   1.083       .  S
C604        C605   1.400       .  A
C605        C606   1.397       .  A
C605        H610   1.083       .  S
C606        C607   1.411       .  A
C606        H611   1.083       .  S
C607        C608   1.401       .  A
C608        H612   1.083       .  S
C613        C614   1.413       .  A
C613        H619   1.083       .  S
C615        C616   1.396       .  A
C615        H620   1.083   1_556  S
C616        C617   1.412       .  A
C616        H621   1.083       .  S
C617        C618   1.397       .  A
C618        H622   1.083       .  S
C623        C624   1.398   1_455  A
C623        C628   1.396       .  A
C623        H629   1.083   1_455  S
C624        C625   1.412   1_655  A
C625        C626   1.395       .  A
C625        H630   1.083       .  S
C626        C627   1.398       .  A
C626        H631   1.083       .  S
C627        C628   1.412       .  A
C628        H632   1.083       .  S
C633        C634   1.413       .  A
C633        C638   1.400       .  A
C633        H639   1.083       .  S
C634        C635   1.399       .  A
C635        C636   1.398       .  A
C635        H640   1.083       .  S
C636        C637   1.413       .  A
C636        H641   1.083       .  S
C637        C638   1.399       .  A
C638        H642   1.083       .  S
C643        C644   1.414       .  A
C643        C648   1.401       .  A
C643        H649   1.083       .  S
C644        C645   1.399       .  A
C645        C646   1.396       .  A
C645        H650   1.083       .  S
C646        C647   1.412   1_455  A
C646        H651   1.083       .  S
C647        C648   1.400   1_655  A
C648        H652   1.083   1_455  S
C653        C654   1.400       .  A
C653        C658   1.403       .  A
C653        H659   1.083       .  S
C654        C655   1.412       .  A
C655        C656   1.402       .  A
C655        H660   1.083       .  S
C656        C657   1.399       .  A
C656        H661   1.083       .  S
C657        C658   1.411       .  A
C658        H662   1.083       .  S
C663        C664   1.413       .  A
C663        C668   1.403       .  A
C663        H669   1.083       .  S
C664        C665   1.401       .  A
C665        C666   1.405       .  A
C665        H670   1.083       .  S
C666        C667   1.411       .  A
C666        H671   1.083       .  S
C667        C668   1.399       .  A
C668        H672   1.083       .  S
C673        C674   1.403       .  A
C673        C678   1.397       .  A
C673        H679   1.084       .  S
C674        C675   1.400       .  A
C675        C676   1.399       .  A
C675        H680   1.083       .  S
C676        C677   1.408       .  A
C676        H681   1.083       .  S
C677        C678   1.404       .  A
C678        H682   1.083   1_565  S
C683        C684   1.404       .  A
C683        C688   1.397       .  A
C683        H689   1.084       .  S
C685        C686   1.402       .  A
C685        H690   1.083       .  S
C686        C687   1.409       .  A
C686        H691   1.083       .  S
C688        H692   1.083       .  S
C693        C694   1.403       .  A
C693        C698   1.395       .  A
C693        H699   1.083   1_565  S
C694        C695   1.408       .  A
C695        C696   1.400       .  A
C695        H700   1.083       .  S
C696        C697   1.400       .  A
C696        H701   1.083       .  S
C697        C698   1.404       .  A
C698        H702   1.084       .  S
C703        C704   1.401       .  A
C703        C708   1.399       .  A
C703        H709   1.083       .  S
C704        C705   1.412       .  A
C705        C706   1.398       .  A
C705        H710   1.083       .  S
C706        C707   1.400       .  A
C706        H711   1.083       .  S
C707        C708   1.411       .  A
C713        C714   1.400       .  A
C713        C718   1.399       .  A
C713        H719   1.083       .  S
C714        C715   1.413       .  A
C715        C716   1.402       .  A
C715        H720   1.083       .  S
C716        C717   1.401       .  A
C716        H721   1.083       .  S
C717        C718   1.412       .  A
C718        H722   1.083       .  S
C723        C724   1.401       .  A
C723        C728   1.400       .  A
C723        H729   1.083       .  S
C724        C725   1.403       .  A
C725        C726   1.395       .  A
C725        H730   1.084       .  S
C726        C727   1.403       .  A
C726        H731   1.083       .  S
C727        C728   1.408       .  A
C728        H732   1.083       .  S
C733        C734   1.412       .  A
C733        C738   1.398       .  A
C733        H739   1.083       .  S
C735        C736   1.398       .  A
C735        H740   1.083       .  S
C736        C737   1.413       .  A
C736        H741   1.083       .  S
C738        H742   1.083   1_556  S
C743        C744   1.398       .  A
C743        C748   1.396       .  A
C743        H749   1.083       .  S
C744        C745   1.414       .  A
C745        C746   1.400       .  A
C745        H750   1.083       .  S
C746        C747   1.399   1_655  A
C746        H751   1.083   1_655  S
C747        C748   1.413   1_455  A
C748        H752   1.083       .  S
C753        C754   1.402       .  A
C753        C758   1.402       .  A
C753        H759   1.083       .  S
C754        C755   1.403       .  A
C755        C756   1.395       .  A
C755        H760   1.084       .  S
C756        C757   1.403       .  A
C756        H761   1.083       .  S
C757        C758   1.409       .  A
C758        H762   1.083       .  S
C763        C764   1.408       .  A
C763        H769   1.083       .  S
C765        C766   1.396       .  A
C765        H770   1.083       .  S
C766        C767   1.404       .  A
C766        H771   1.084       .  S
C767        C768   1.401       .  A
C768        H772   1.083       .  S
C773        C774   1.413       .  A
C773        C778   1.400       .  A
C773        H779   1.083       .  S
C774        C775   1.398       .  A
C775        C776   1.393       .  A
C775        H780   1.083       .  S
C776        C777   1.411       .  A
C776        H781   1.083       .  S
C777        C778   1.400       .  A
C778        H782   1.083       .  S
C783        C784   1.413       .  A
C783        C788   1.399       .  A
C783        H789   1.083       .  S
C784        C785   1.399       .  A
C785        C786   1.398       .  A
C785        H790   1.083       .  S
C786        C787   1.413   1_655  A
C786        H791   1.083       .  S
C787        C788   1.399   1_455  A
C788        H792   1.083   1_655  S
C793        C794   1.400       .  A
C793        C798   1.403       .  A
C793        H799   1.083       .  S
C794        C795   1.411       .  A
C795        C796   1.400       .  A
C795        H800   1.083       .  S
C796        C797   1.398       .  A
C796        H801   1.083       .  S
C797        C798   1.411       .  A
C803        C804   1.411       .  A
C803        C808   1.403       .  A
C803        H809   1.083       .  S
C804        C805   1.397       .  A
C805        C806   1.400       .  A
C805        H810   1.083       .  S
C806        C807   1.411       .  A
C806        H811   1.083       .  S
C807        C808   1.400       .  A
C808        H812   1.083       .  S
C813        C814   1.402       .  A
C813        C818   1.394       .  A
C813        H819   1.083   1_545  S
C814        C815   1.408       .  A
C815        C816   1.401       .  A
C815        H820   1.083       .  S
C816        C817   1.401       .  A
C816        H821   1.083       .  S
C817        C818   1.404       .  A
C818        H822   1.084       .  S
C823        C824   1.403       .  A
C823        C828   1.395       .  A
C823        H829   1.084       .  S
C824        C825   1.400       .  A
C825        C826   1.400       .  A
C825        H830   1.083       .  S
C826        C827   1.408       .  A
C826        H831   1.083       .  S
C827        C828   1.402       .  A
C828        H832   1.083   1_545  S
