geometry optimzed in LAMMPS
_audit_creation_date              2020-12-01 
_audit_creation_method            'lammps2cif' 
_symmetry_space_group_name_H-M    'P1' 
_symmetry_Int_Tables_number       1 
_symmetry_cell_setting            triclinic 
loop_ 
_symmetry_equiv_pos_as_xyz 
  x,y,z 
_cell_length_a                    29.38206573 
_cell_length_b                    29.5723903855081 
_cell_length_c                    29.16506934118768 
_cell_angle_alpha                 90.32957895917501 
_cell_angle_beta                  90.30869462463814 
_cell_angle_gamma                 90.09924695682703 
loop_ 
_atom_site_label 
_atom_site_type_symbol 
_atom_site_fract_x 
_atom_site_fract_y 
_atom_site_fract_z 
_atom_site_charge 
O1          O  0.18962672  0.59401206  0.45486231    -0.84100
O2          O  0.25360688  0.62462234  0.51234133    -0.81100
C3          C  0.26025660  0.65816718  0.53796172     0.99400
O4          O  0.23718913  0.66437803  0.57434991    -0.81200
O5          O  0.14872113  0.69050072  0.57699172    -0.83800
C6          C  0.10717812  0.69224178  0.56710142     1.03900
O7          O  0.08759594  0.65702498  0.55306151    -0.76600
O8          O  0.13365751  0.64112812  0.47228735    -0.76800
C9          C  0.16214181  0.62543772  0.44435756     1.03900
O10         O  0.17877336  0.51445371  0.51258412    -0.84100
O11         O  0.24453536  0.54857274  0.56992464    -0.81100
C12         C  0.23980540  0.55457409  0.61241938     0.99400
O13         O  0.21308323  0.58401548  0.62815880    -0.81200
O14         O  0.12106984  0.60790827  0.62712247    -0.83800
C15         C  0.09258901  0.57805657  0.61236467     1.03900
O16         O  0.09379832  0.56417118  0.57144873    -0.76600
O17         O  0.11990723  0.54761490  0.48293618    -0.76700
C18         C  0.14291466  0.51238938  0.48910236     1.03800
Cr19       Cr  0.21288316  0.57290186  0.51546920     1.93700
Cr20       Cr  0.17946094  0.63377330  0.59757394     1.93200
Cr21       Cr  0.11390710  0.60264043  0.52213395     1.39100
O22         O  0.16955385  0.60304138  0.54572423    -1.21800
O23         O  0.14784090  0.58285829  0.31912043    -0.84100
O24         O  0.10019669  0.52136921  0.26962200    -0.81100
C25         C  0.07569408  0.50564253  0.23803192     0.99400
O26         O  0.07860073  0.52098343  0.19723191    -0.81200
O27         O  0.04956539  0.61116224  0.19272608    -0.83800
C28         C  0.04854683  0.65323498  0.19973733     1.03900
O29         O  0.08420267  0.67343885  0.21334758    -0.76600
O30         O  0.10271573  0.63833428  0.29817115    -0.76800
C31         C  0.12089742  0.61497802  0.32879747     1.03900
O32         O  0.22210335  0.57433740  0.25658082    -0.84100
O33         O  0.17576912  0.50751616  0.20861280    -0.81100
C34         C  0.18037658  0.51643698  0.16647293     0.99400
O35         O  0.16043459  0.54965471  0.14883949    -0.81200
O36         O  0.13097954  0.63747255  0.14135879    -0.83800
C37         C  0.16454788  0.66289965  0.15268141     1.03900
O38         O  0.17923224  0.66289814  0.19307731    -0.76600
O39         O  0.19931840  0.64097949  0.28001368    -0.76700
C40         C  0.23081491  0.61233507  0.27422510     1.03800
Cr41       Cr  0.15943805  0.54960792  0.26060782     1.93700
Cr42       Cr  0.10687059  0.58049371  0.17398945     1.93200
Cr43       Cr  0.14062380  0.64949699  0.24472546     1.39100
O44         O  0.13541078  0.59284933  0.22623386    -1.21800
O45         O  0.29806896  0.11147051  0.55690510    -0.84100
O46         O  0.22472674  0.11567479  0.49785891    -0.81100
C47         C  0.22208272  0.07338874  0.50085694     0.99400
O48         O  0.19857448  0.05696757  0.53341344    -0.81200
O49         O  0.16348427  0.05058654  0.62327155    -0.83800
C50         C  0.19330724  0.03406875  0.64956703     1.03900
O51         O  0.23076223  0.05446584  0.65546684    -0.76600
O52         O  0.29871458  0.11605145  0.63253642    -0.76800
C53         C  0.31841012  0.10846497  0.59485969     1.03900
O54         O  0.27838157  0.19869683  0.59035324    -0.84100
O55         O  0.19767310  0.19776160  0.54063570    -0.81100
C56         C  0.15961789  0.18459502  0.52541738     0.99400
O57         O  0.14857541  0.14332108  0.52671574    -0.81200
O58         O  0.12859735  0.14189621  0.61821183    -0.83800
C59         C  0.13979359  0.14878017  0.65987448     1.03900
O60         O  0.17341966  0.12830522  0.67683669    -0.76600
O61         O  0.23985907  0.18942340  0.65346836    -0.76700
C62         C  0.26625641  0.21283804  0.62907559     1.03800
Cr63       Cr  0.24711847  0.15363601  0.54973574     1.93700
Cr64       Cr  0.16324946  0.09927749  0.57616495     1.93200
Cr65       Cr  0.23447124  0.12220587  0.64993602     1.39100
O66         O  0.21522382  0.12475559  0.59241275    -1.21800
O67         O  0.44912293  0.15623835  0.59875424    -0.84100
O68         O  0.49667002  0.21829610  0.64697489    -0.81100
C69         C  0.52541955  0.23123825  0.67607757     0.99400
O70         O  0.56543120  0.21434935  0.67739314    -0.81200
O71         O  0.56719059  0.12480108  0.70504463    -0.83800
C72         C  0.55967625  0.08292612  0.70565998     1.03900
O73         O  0.54868172  0.06286625  0.66883797    -0.76600
O74         O  0.46710736  0.10173766  0.64665449    -0.76800
C75         C  0.43804484  0.12606620  0.62743484     1.03900
O76         O  0.51623579  0.16129043  0.52745368    -0.84100
O77         O  0.56204258  0.22783239  0.57540175    -0.81100
C78         C  0.60427602  0.21950430  0.57544475     0.99400
O79         O  0.62023824  0.18715295  0.59813996    -0.81200
O80         O  0.62305557  0.09842396  0.62540966    -0.83800
C81         C  0.61311530  0.07372317  0.59052942     1.03900
O82         O  0.57340063  0.07293166  0.57464059    -0.76600
O83         O  0.48844006  0.09667110  0.55024747    -0.76700
C84         C  0.49668354  0.12449370  0.51849749     1.03800
Cr85       Cr  0.50879259  0.18766336  0.58933316     1.93700
Cr86       Cr  0.59021505  0.15551304  0.64912529     1.93200
Cr87       Cr  0.52088595  0.08796724  0.61083224     1.39100
O88         O  0.54037217  0.14419932  0.61657410    -1.21800
O89         O  0.60845096  0.44196647  0.18820752    -0.84100
O90         O  0.63310172  0.49947838  0.25547646    -0.81100
C91         C  0.67053073  0.51941120  0.26015781     0.99400
O92         O  0.68187355  0.55179830  0.23371523    -0.81200
O93         O  0.70402920  0.55784674  0.14365582    -0.83800
C94         C  0.70457796  0.55149604  0.10115227     1.03900
O95         O  0.66839041  0.53919053  0.08187615    -0.76600
O96         O  0.65581710  0.45937738  0.13143210    -0.76800
C97         C  0.64017180  0.43190237  0.16027349     1.03900
O98         O  0.52672730  0.49735263  0.17327813    -0.84100
O99         O  0.55707946  0.55605441  0.23862812    -0.81100
C100        C  0.56862331  0.59714489  0.23789885     0.99400
O101        O  0.60283732  0.61029986  0.21584447    -0.81200
O102        O  0.61857340  0.60996916  0.12174312    -0.83800
C103        C  0.58600679  0.59611414  0.09509038     1.03900
O104        O  0.57538444  0.55479370  0.09238736    -0.76600
O105        O  0.56166037  0.46581611  0.11660411    -0.76700
C106        C  0.52537828  0.47313906  0.13792304     1.03800
Cr107      Cr  0.58401509  0.50132987  0.21024289     1.93700
Cr108      Cr  0.64907004  0.57886103  0.17795194     1.93200
Cr109      Cr  0.61560019  0.50694841  0.11102489     1.39100
O110        O  0.61602980  0.52982361  0.16736680    -1.21800
O111        O  0.58941051  0.31131595  0.14953183    -0.84100
O112        O  0.52308764  0.26329585  0.10804279    -0.81100
C113        C  0.50686980  0.23332531  0.08225496     0.99400
O114        O  0.52306574  0.19311007  0.08209402    -0.81200
O115        O  0.61035003  0.18807698  0.04638762    -0.83800
C116        C  0.65217606  0.19526369  0.04103349     1.03900
O117        O  0.67579233  0.20866318  0.07486360    -0.76600
O118        O  0.63859345  0.29070704  0.09692292    -0.76800
C119        C  0.61793651  0.32083406  0.11847310     1.03900
O120        O  0.58906696  0.24822938  0.22376637    -0.84100
O121        O  0.51747386  0.20145919  0.18337427    -0.81100
C122        C  0.52670793  0.15970599  0.18549718     0.99400
O123        O  0.55801646  0.14304012  0.16178216    -0.81200
O124        O  0.64379606  0.13662048  0.12732191    -0.83800
C125        C  0.67166838  0.14842247  0.15929818     1.03900
O126        O  0.67503993  0.18904877  0.17110148    -0.76600
O127        O  0.65256450  0.27319566  0.19401741    -0.76700
C128        C  0.62749939  0.26646616  0.22860172     1.03800
Cr129      Cr  0.55774859  0.25319200  0.16381588     1.93700
Cr130      Cr  0.58467600  0.16898529  0.10630996     1.93200
Cr131      Cr  0.65598281  0.23907358  0.13386529     1.39100
O132        O  0.59907497  0.21995734  0.13468050    -1.21800
O133        O  0.69192309  0.89940667  0.55131091    -0.84100
O134        O  0.75382659  0.86355280  0.49674915    -0.81100
C135        C  0.76215434  0.83133359  0.47021372     0.99400
O136        O  0.73936758  0.82518775  0.43311388    -0.81200
O137        O  0.64929333  0.79888840  0.43202536    -0.83800
C138        C  0.60750043  0.79765339  0.44072142     1.03900
O139        O  0.58844607  0.83297000  0.45543612    -0.76600
O140        O  0.63584634  0.85152012  0.53588823    -0.76800
C141        C  0.66490268  0.86805380  0.56301570     1.03900
O142        O  0.68356585  0.97437545  0.48700043    -0.84100
O143        O  0.74925593  0.93587555  0.43478743    -0.81100
C144        C  0.74174907  0.93143535  0.39246670     0.99400
O145        O  0.71241987  0.90403400  0.37752665    -0.81200
O146        O  0.62145308  0.88068409  0.38010555    -0.83800
C147        C  0.59531049  0.91295441  0.39363799     1.03900
O148        O  0.59574903  0.92606088  0.43478286    -0.76600
O149        O  0.62509857  0.94599975  0.52185463    -0.76700
C150        C  0.64933791  0.97970739  0.51171970     1.03800
Cr151      Cr  0.71580129  0.91599642  0.48977301     1.93700
Cr152      Cr  0.68012759  0.85470874  0.40970231     1.93200
Cr153      Cr  0.61605296  0.88864396  0.48496755     1.39100
O154        O  0.67136700  0.88614047  0.46090688    -1.21800
O155        O  0.65616115  0.90380384  0.69152354    -0.84100
O156        O  0.60935674  0.96467218  0.74063463    -0.81100
C157        C  0.58349947  0.97900260  0.77143899     0.99400
O158        O  0.58524743  0.96306745  0.81216701    -0.81200
O159        O  0.55626738  0.87374502  0.81738489    -0.83800
C160        C  0.55384209  0.83214916  0.80851137     1.03900
O161        O  0.58838913  0.81174632  0.79320666    -0.76600
O162        O  0.60748901  0.85063956  0.70997620    -0.76800
C163        C  0.62720225  0.87384769  0.68036469     1.03900
O164        O  0.72929378  0.90919075  0.75660130    -0.84100
O165        O  0.68329555  0.97698268  0.80285223    -0.81100
C166        C  0.68727385  0.96840171  0.84500773     0.99400
O167        O  0.66736600  0.93510938  0.86229252    -0.81200
O168        O  0.63946692  0.84712646  0.86812591    -0.83800
C169        C  0.67219046  0.82137344  0.85546809     1.03900
O170        O  0.68327007  0.81894030  0.81413316    -0.76600
O171        O  0.70454012  0.84431816  0.72957693    -0.76700
C172        C  0.73706404  0.87137070  0.73826631     1.03800
Cr173      Cr  0.66750969  0.93542417  0.75075796     1.93700
Cr174      Cr  0.61401801  0.90398479  0.83605549     1.93200
Cr175      Cr  0.64515990  0.83587867  0.76320614     1.39100
O176        O  0.64204038  0.89204619  0.78381725    -1.21800
O177        O  0.19719106  0.84421448  0.06726742    -0.84100
O178        O  0.25332184  0.87512743  0.00423503    -0.81100
C179        C  0.27986127  0.90701392  0.99526147     0.99400
O180        O  0.31646839  0.91341923  0.01833302    -0.81200
O181        O  0.31628333  0.94332835  0.10641907    -0.83800
C182        C  0.30835446  0.94763607  0.14830313     1.03900
O183        O  0.29252888  0.91431785  0.16968828    -0.76600
O184        O  0.21285662  0.89572063  0.12046741    -0.76800
C185        C  0.18599477  0.87784052  0.09190967     1.03900
O186        O  0.25830977  0.76788472  0.08159595    -0.84100
O187        O  0.31274517  0.80097745  0.01394366    -0.81100
C188        C  0.35479079  0.80581616  0.02097059     0.99400
O189        O  0.36974332  0.83456919  0.04913540    -0.81200
O190        O  0.36616420  0.86131357  0.13968138    -0.83800
C191        C  0.35116124  0.83096761  0.16732518     1.03900
O192        O  0.30963528  0.82053267  0.16793736    -0.76600
O193        O  0.22386980  0.80155729  0.13798859    -0.76700
C194        C  0.23422392  0.76569723  0.11686390     1.03800
Cr195      Cr  0.25806232  0.82441975  0.04544521     1.93700
Cr196      Cr  0.33821570  0.88574389  0.07917046     1.93200
Cr197      Cr  0.26170790  0.85824396  0.14418121     1.39100
O198        O  0.28673878  0.85606836  0.08891191    -1.21800
O199        O  0.06094065  0.83598113  0.09746603    -0.84100
O200        O  0.01382119  0.77196398  0.14257915    -0.81100
C201        C  0.98374840  0.75703309  0.16880977     0.99400
O202        O  0.94296337  0.77189709  0.16710025    -0.81200
O203        O  0.93630508  0.86128760  0.19787705    -0.83800
C204        C  0.94373365  0.90327758  0.19981101     1.03900
O205        O  0.95546814  0.92400988  0.16404727    -0.76600
O206        O  0.03922143  0.88968891  0.14499519    -0.76800
C207        C  0.06992575  0.86700488  0.12640518     1.03900
O208        O  0.99826373  0.82867734  0.02185849    -0.84100
O209        O  0.95283637  0.75972053  0.06692510    -0.81100
C210        C  0.91083069  0.76793809  0.06288267     0.99400
O211        O  0.89264617  0.79976774  0.08482079    -0.81200
O212        O  0.88366559  0.88682980  0.11627639    -0.83800
C213        C  0.89396952  0.91276720  0.08298791     1.03900
O214        O  0.93404105  0.91453722  0.06864135    -0.76600
O215        O  0.02027838  0.89460752  0.04811435    -0.76700
C216        C  0.01566154  0.86699650  0.01512436     1.03800
Cr217      Cr  0.00341433  0.80220187  0.08436432     1.93700
Cr218      Cr  0.91772230  0.83060076  0.13943521     1.93200
Cr219      Cr  0.98588017  0.90119223  0.10698749     1.39100
O220        O  0.96875729  0.84422516  0.11052214    -1.21800
O221        O  0.41139544  0.94636746  0.31357680    -0.84100
O222        O  0.37748518  0.00284628  0.25139090    -0.81100
C223        C  0.34152517  0.02505015  0.24645382     0.99400
O224        O  0.33279160  0.05946886  0.27152926    -0.81200
O225        O  0.30865629  0.05923892  0.36065253    -0.83800
C226        C  0.30709035  0.05038298  0.40253805     1.03900
O227        O  0.34256621  0.03600073  0.42181108    -0.76600
O228        O  0.36219057  0.95846253  0.36977544    -0.76800
C229        C  0.38039834  0.93287849  0.34049998     1.03900
O230        O  0.48712034  0.00906037  0.32796891    -0.84100
O231        O  0.45054014  0.06443278  0.26335763    -0.81100
C232        C  0.44166918  0.10572550  0.26924096     0.99400
O233        O  0.41086983  0.11822062  0.29623316    -0.81200
O234        O  0.39104869  0.11242188  0.38873598    -0.83800
C235        C  0.42339285  0.09852167  0.41508343     1.03900
O236        O  0.43556348  0.05770695  0.41516658    -0.76600
O237        O  0.45648660  0.97281457  0.38442760    -0.76700
C238        C  0.49135897  0.98398560  0.36220765     1.03800
Cr239      Cr  0.42905581  0.00818758  0.29287293     1.93700
Cr240      Cr  0.36376909  0.08349850  0.32983840     1.93200
Cr241      Cr  0.39866169  0.00849280  0.39270161     1.39100
O242        O  0.39712264  0.03411222  0.33770765    -1.21800
O243        O  0.42100105  0.80576466  0.35040399    -0.84100
O244        O  0.48710458  0.75742133  0.39094026    -0.81100
C245        C  0.50223937  0.72837846  0.41807616     0.99400
O246        O  0.48455012  0.68878951  0.42009078    -0.81200
O247        O  0.39780278  0.68572432  0.45616005    -0.83800
C248        C  0.35605345  0.69275744  0.46165259     1.03900
O249        O  0.33257475  0.70729229  0.42844400    -0.76600
O250        O  0.37137786  0.78921515  0.40400012    -0.76800
C251        C  0.39302066  0.81772206  0.38115570     1.03900
O252        O  0.41708323  0.74091448  0.27756834    -0.84100
O253        O  0.48880807  0.69363528  0.31736638    -0.81100
C254        C  0.47966958  0.65183465  0.31706789     0.99400
O255        O  0.44836652  0.63633011  0.34145569    -0.81200
O256        O  0.36258518  0.63307705  0.37681746    -0.83800
C257        C  0.33385916  0.64463925  0.34576916     1.03900
O258        O  0.33114464  0.68500510  0.33313798    -0.76600
O259        O  0.35515393  0.76866986  0.30823072    -0.76700
C260        C  0.37953793  0.76093301  0.27334526     1.03800
Cr261      Cr  0.45031224  0.74657431  0.33657198     1.93700
Cr262      Cr  0.42248702  0.66485864  0.39649418     1.93200
Cr263      Cr  0.35221555  0.73605135  0.36885820     1.39100
O264        O  0.40872915  0.71542417  0.36741870    -1.21800
O265        O  0.55845967  0.65535714  0.91633180    -0.84100
O266        O  0.51297287  0.71709348  0.86704305    -0.81100
C267        C  0.48460402  0.73047305  0.83793852     0.99400
O268        O  0.44415870  0.71455007  0.83663161    -0.81200
O269        O  0.44175213  0.62588520  0.80603519    -0.83800
C270        C  0.44999668  0.58419539  0.80380009     1.03900
O271        O  0.46146241  0.56332678  0.83982352    -0.76600
O272        O  0.54265938  0.60130578  0.86661350    -0.76800
C273        C  0.57079201  0.62534584  0.88793864     1.03900
O274        O  0.49112421  0.65990079  0.98570044    -0.84100
O275        O  0.44685040  0.72713074  0.93756365    -0.81100
C276        C  0.40485461  0.71813350  0.93815037     0.99400
O277        O  0.38885210  0.68577622  0.91504181    -0.81200
O278        O  0.38503412  0.59806257  0.88373234    -0.83800
C279        C  0.39423568  0.57215364  0.91748155     1.03900
O280        O  0.43370679  0.57045654  0.93387930    -0.76600
O281        O  0.51759736  0.59465524  0.96205030    -0.76700
C282        C  0.51005075  0.62273035  0.99416001     1.03800
Cr283      Cr  0.49947578  0.68658869  0.92424828     1.93700
Cr284      Cr  0.41868306  0.65539037  0.86285244     1.93200
Cr285      Cr  0.48737317  0.58689222  0.89992212     1.39100
O286        O  0.46813483  0.64328324  0.89555762    -1.21800
O287        O  0.71409001  0.62452325  0.95748715    -0.84100
O288        O  0.79195567  0.61513098  0.00817382    -0.81100
C289        C  0.78796728  0.57329908  0.00126726     0.99400
O290        O  0.80606539  0.55657135  0.96538469    -0.81200
O291        O  0.82861141  0.55134908  0.87076364    -0.83800
C292        C  0.79175097  0.54295522  0.84935367     1.03900
O293        O  0.75828292  0.56903887  0.85424731    -0.76600
O294        O  0.70654671  0.63941737  0.88408292    -0.76800
C295        C  0.69051244  0.62575736  0.92150994     1.03900
O296        O  0.74232388  0.71119028  0.92701676    -0.84100
O297        O  0.82604303  0.69570970  0.96935413    -0.81100
C298        C  0.86214622  0.67665638  0.98260825     0.99400
O299        O  0.86911783  0.63509258  0.97358495    -0.81200
O300        O  0.87874901  0.63642365  0.87849325    -0.83800
C301        C  0.86409932  0.64508911  0.83831736     1.03900
O302        O  0.82569892  0.63047419  0.82601808    -0.76600
O303        O  0.77577331  0.70183429  0.86083994    -0.76700
C304        C  0.75292618  0.72608363  0.88804226     1.03800
Cr305      Cr  0.77044361  0.65970798  0.96209254     1.93700
Cr306      Cr  0.84271784  0.59650689  0.92206107     1.98000
Cr307      Cr  0.76844317  0.63505562  0.86022386     1.39100
O308        O  0.79397758  0.63056437  0.91449598    -1.21800
O309        O  0.31067396  0.39844128  0.95564739    -0.84100
O310        O  0.24929241  0.36353116  0.01106692    -0.81100
C311        C  0.24338418  0.32904377  0.03486737     0.99400
O312        O  0.26764729  0.32152262  0.07072284    -0.81200
O313        O  0.35788961  0.29827903  0.07112877    -0.83800
C314        C  0.39951369  0.29807094  0.06180162     1.03900
O315        O  0.41764802  0.33412905  0.04829660    -0.76600
O316        O  0.36681799  0.35061548  0.97000970    -0.76800
C317        C  0.33791889  0.36747317  0.94321556     1.03900
O318        O  0.32129149  0.47378460  0.02068836    -0.84100
O319        O  0.25668166  0.43555224  0.07391190    -0.81100
C320        C  0.26322619  0.42887047  0.11600747     0.99400
O321        O  0.29184586  0.40028139  0.12971081    -0.81200
O322        O  0.38467863  0.38077474  0.12460693    -0.83800
C323        C  0.41128126  0.41259333  0.11051916     1.03900
O324        O  0.40893775  0.42653246  0.06982603    -0.76600
O325        O  0.37781987  0.44535678  0.98293324    -0.76700
C326        C  0.35445556  0.47915897  0.99459045     1.03800
Cr327      Cr  0.28831368  0.41554274  0.01787708     1.93700
Cr328      Cr  0.32589576  0.35294360  0.09531255     1.93200
Cr329      Cr  0.38795992  0.38866233  0.01989648     1.39100
O330        O  0.33328544  0.38554803  0.04514395    -1.21800
O331        O  0.35306862  0.41030044  0.81713999    -0.84100
O332        O  0.40078782  0.46842547  0.76616251    -0.81100
C333        C  0.42653472  0.48161457  0.73493124     0.99400
O334        O  0.42458288  0.46402798  0.69459573    -0.81200
O335        O  0.45418797  0.37474310  0.69305791    -0.83800
C336        C  0.45689880  0.33368144  0.70376149     1.03900
O337        O  0.42251012  0.31383811  0.72009917    -0.76600
O338        O  0.40291562  0.35780743  0.80047210    -0.76800
C339        C  0.38195639  0.38091319  0.82931863     1.03900
O340        O  0.28134515  0.41270094  0.75053644    -0.84100
O341        O  0.32777490  0.47792987  0.70253998    -0.81100
C342        C  0.32255075  0.46647984  0.66108390     0.99400
O343        O  0.34226650  0.43217750  0.64526907    -0.81200
O344        O  0.37175137  0.34365217  0.64365534    -0.83800
C345        C  0.34013785  0.31721476  0.65781726     1.03900
O346        O  0.32769287  0.31866717  0.69870598    -0.76600
O347        O  0.30535677  0.34937780  0.78098589    -0.76700
C348        C  0.27315744  0.37604214  0.77044830     1.03800
Cr349      Cr  0.34277223  0.43906446  0.75646538     1.93700
Cr350      Cr  0.39623022  0.40321678  0.67285032     1.93200
Cr351      Cr  0.36534185  0.33921477  0.74854863     1.39100
O352        O  0.36823733  0.39402652  0.72537474    -1.21800
O353        O  0.08858151  0.18020788  0.84555764    -0.84100
O354        O  0.02231066  0.22762804  0.88761495    -0.81100
C355        C  0.00601871  0.25777262  0.91307073     0.99400
O356        O  0.01962764  0.29878004  0.91075048    -0.81200
O357        O  0.10656906  0.30871928  0.94630898    -0.83800
C358        C  0.14814683  0.30041289  0.95292534     1.03900
O359        O  0.17195407  0.28589267  0.92006822    -0.76600
O360        O  0.13750165  0.20260214  0.89801162    -0.76800
C361        C  0.11712125  0.17168364  0.87695597     1.03900
O362        O  0.08580505  0.24082810  0.77011725    -0.84100
O363        O  0.01308587  0.28573021  0.81056169    -0.81100
C364        C  0.01905300  0.32770793  0.80603629     0.99400
O365        O  0.04969469  0.34799346  0.82863426    -0.81200
O366        O  0.13714417  0.35820408  0.86464732    -0.83800
C367        C  0.16697233  0.34601901  0.83526917     1.03900
O368        O  0.17095320  0.30533446  0.82391568    -0.76600
O369        O  0.15057179  0.22032745  0.80121152    -0.76700
C370        C  0.12463443  0.22314462  0.76641377     1.03800
Cr371      Cr  0.05543490  0.23696377  0.83081518     1.93700
Cr372      Cr  0.07938635  0.32448769  0.88542270     1.93200
Cr373      Cr  0.15302146  0.25500485  0.86097313     1.39100
O374        O  0.09567910  0.27275656  0.85894765    -1.21800
O375        O  0.13038086  0.03403860  0.80608840    -0.84100
O376        O  0.12393055  0.96275549  0.74554093    -0.81100
C377        C  0.16600100  0.95500566  0.74884804     0.99400
O378        O  0.18004803  0.93057037  0.78168759    -0.81200
O379        O  0.18412910  0.89772053  0.87134584    -0.83800
C380        C  0.20317187  0.92826964  0.89530380     1.03900
O381        O  0.18371990  0.96597849  0.90078963    -0.76600
O382        O  0.12283426  0.03447849  0.88114690    -0.76800
C383        C  0.13332901  0.05383046  0.84428457     1.03900
O384        O  0.04040659  0.01692220  0.83748587    -0.84100
O385        O  0.03876936  0.93898168  0.78512755    -0.81100
C386        C  0.04964842  0.90136791  0.76807124     0.99400
O387        O  0.09004208  0.88675750  0.77211468    -0.81200
O388        O  0.09015442  0.86672514  0.86465544    -0.83800
C389        C  0.08569862  0.87749958  0.90660953     1.03900
O390        O  0.10880665  0.90963950  0.92320297    -0.76600
O391        O  0.04800882  0.97724244  0.90016762    -0.76700
C392        C  0.02522487  0.00429442  0.87566244     1.03800
Cr393      Cr  0.08548523  0.98552165  0.79681141     1.93700
Cr394      Cr  0.13491116  0.89884320  0.82333089     1.93200
Cr395      Cr  0.11558343  0.97052660  0.89689152     1.39100
O396        O  0.11214483  0.95182553  0.83930362    -1.21800
O397        O  0.91183446  0.67278154  0.63874788    -0.84100
O398        O  0.97843626  0.72200787  0.59950730    -0.81100
C399        C  0.99995923  0.75447805  0.58272718     0.99400
O400        O  0.98827089  0.79524644  0.59131793    -0.81200
O401        O  0.90047382  0.80988164  0.55544309    -0.83800
C402        C  0.85832881  0.80376012  0.54928592     1.03900
O403        O  0.83399763  0.79001136  0.58210019    -0.76600
O404        O  0.86092007  0.70359673  0.59347516    -0.76800
C405        C  0.88108731  0.66952131  0.60824770     1.03900
O406        O  0.92212485  0.72510543  0.72149471    -0.84100
O407        O  0.99486879  0.77119949  0.68265881    -0.81100
C408        C  0.98931015  0.81225433  0.69360082     0.99400
O409        O  0.95679066  0.83466729  0.67697703    -0.81200
O410        O  0.87140978  0.85387000  0.64102588    -0.83800
C411        C  0.84286256  0.84136537  0.67139007     1.03900
O412        O  0.83899743  0.80033182  0.68088254    -0.76600
O413        O  0.85441229  0.71216508  0.69233106    -0.76700
C414        C  0.88198227  0.71081694  0.72594562     1.03800
Cr415      Cr  0.94902578  0.72604744  0.65899019     1.93700
Cr416      Cr  0.92799608  0.81962466  0.61753091     1.93200
Cr417      Cr  0.85148728  0.75269385  0.63711167     1.39100
O418        O  0.90972910  0.76638952  0.63786520    -1.21800
O419        O  0.88544920  0.55983609  0.67451133    -0.84100
O420        O  0.85284226  0.50325372  0.73818433    -0.81100
C421        C  0.84045662  0.46835182  0.75885946     0.99400
O422        O  0.85050981  0.42931092  0.74289943    -0.81200
O423        O  0.81193920  0.41888314  0.65384471    -0.83800
C424        C  0.80396077  0.42804839  0.61227215     1.03900
O425        O  0.83511850  0.44471701  0.58791111    -0.76600
O426        O  0.84078468  0.52918220  0.62246815    -0.76800
C427        C  0.85325447  0.56264296  0.64564872     1.03900
O428        O  0.97143176  0.51282632  0.67646482    -0.84100
O429        O  0.94026931  0.45959683  0.74751045    -0.81100
C430        C  0.95240488  0.41924012  0.73959431     0.99400
O431        O  0.93556705  0.39745480  0.70620376    -0.81200
O432        O  0.89932652  0.38305403  0.61900565    -0.83800
C433        C  0.92775155  0.39969728  0.59046367     1.03900
O434        O  0.93307546  0.44167100  0.58803817    -0.76600
O435        O  0.93851700  0.52949705  0.61118690    -0.76700
C436        C  0.97347232  0.52933102  0.63680268     1.03800
Cr437      Cr  0.91105997  0.50577001  0.70620158     1.93700
Cr438      Cr  0.87511689  0.41115612  0.67922256     1.93200
Cr439      Cr  0.88709936  0.48476412  0.60687760     1.39100
O440        O  0.89142049  0.46677788  0.66428338    -1.21800
O441        O  0.96525366  0.30395144  0.38591073    -0.84100
O442        O  0.03889557  0.24748958  0.37912513    -0.81100
C443        C  0.03932952  0.25307070  0.33631881     0.99400
O444        O  0.06125981  0.28655467  0.32029774    -0.81200
O445        O  0.09295173  0.37610181  0.31562466    -0.83800
C446        C  0.05980251  0.39969344  0.30190311     1.03900
O447        O  0.02421263  0.40228587  0.32597292    -0.76600
O448        O  0.96361536  0.37801426  0.39477891    -0.76800
C449        C  0.94388613  0.34071384  0.38736957     1.03900
O450        O  0.99385832  0.33390273  0.47361577    -0.84100
O451        O  0.07398803  0.28542465  0.46232084    -0.81100
C452        C  0.11035270  0.27096921  0.44485575     0.99400
O453        O  0.11819449  0.27610391  0.40266404    -0.81200
O454        O  0.13582222  0.36734661  0.40518896    -0.83800
C455        C  0.12434181  0.40793341  0.41360525     1.03900
O456        O  0.08916754  0.42399034  0.39490442    -0.76600
O457        O  0.02946869  0.39800128  0.46292482    -0.76700
C458        C  0.00507499  0.37276907  0.48762559     1.03800
Cr459      Cr  0.02038478  0.29604374  0.42302369     1.93700
Cr460      Cr  0.09875220  0.32717166  0.36254188     1.93200
Cr461      Cr  0.02806160  0.39620093  0.39448317     1.39100
O462        O  0.04874841  0.34011714  0.39327497    -1.21800
O463        O  0.81173780  0.33750263  0.43837106    -0.84100
O464        O  0.75955717  0.38027830  0.49953783    -0.81100
C465        C  0.72898280  0.40642683  0.51307515     0.99400
O466        O  0.68997740  0.40777171  0.49310740    -0.81200
O467        O  0.69010493  0.43970180  0.40301144    -0.83800
C468        C  0.69963977  0.44310741  0.36111152     1.03900
O469        O  0.71604796  0.40931263  0.34031448    -0.76600
O470        O  0.79549682  0.38883763  0.38662262    -0.76800
C471        C  0.82377010  0.36870095  0.41132495     1.03900
O472        O  0.74507106  0.26583086  0.43476612    -0.84100
O473        O  0.69614354  0.30808440  0.50273334    -0.81100
C474        C  0.65453734  0.30625243  0.49175752     0.99400
O475        O  0.63955015  0.32846358  0.45836371    -0.81200
O476        O  0.64044845  0.35908792  0.36921433    -0.83800
C477        C  0.65448498  0.32829273  0.34148959     1.03900
O478        O  0.69503689  0.31522883  0.34292488    -0.76600
O479        O  0.77808073  0.29280045  0.37366576    -0.76700
C480        C  0.76732735  0.25958940  0.39871735     1.03800
Cr481      Cr  0.75050933  0.32506159  0.46538463     1.93700
Cr482      Cr  0.66886248  0.38174306  0.43041260     1.93200
Cr483      Cr  0.74453989  0.35205454  0.36532723     1.39100
O484        O  0.72070529  0.35313651  0.42073210    -1.21800
O485        O  0.85148149  0.08742705  0.19132494    -0.84100
O486        O  0.89750750  0.02352019  0.23750071    -0.81100
C487        C  0.92360771  0.00777550  0.26744352     0.99400
O488        O  0.92420025  0.02386155  0.30816728    -0.81200
O489        O  0.95424748  0.11390905  0.31276246    -0.83800
C490        C  0.95559762  0.15623606  0.30798578     1.03900
O491        O  0.91963433  0.17709295  0.29691698    -0.76600
O492        O  0.89796147  0.14252187  0.21194327    -0.76800
C493        C  0.87872779  0.11927882  0.18154997     1.03900
O494        O  0.77839922  0.08013155  0.25517596    -0.84100
O495        O  0.82448491  0.01240369  0.30090417    -0.81100
C496        C  0.82327782  0.02009248  0.34360247     0.99400
O497        O  0.84557826  0.05203703  0.36131329    -0.81200
O498        O  0.87566854  0.13946139  0.36878965    -0.83800
C499        C  0.84125351  0.16432992  0.35983283     1.03900
O500        O  0.82527309  0.16600250  0.31993578    -0.76600
O501        O  0.80214564  0.14634741  0.23236539    -0.76700
C502        C  0.77034150  0.11776984  0.23705108     1.03800
Cr503      Cr  0.84020782  0.05403315  0.24921492     1.93700
Cr504      Cr  0.89780069  0.08312805  0.33385642     1.93200
Cr505      Cr  0.86191081  0.15349790  0.26663816     1.39100
O506        O  0.86680941  0.09642225  0.28345113    -1.21800
O507        O  0.81429155  0.09330526  0.05265708    -0.84100
O508        O  0.75629063  0.13173408  0.99563745    -0.81100
C509        C  0.74896107  0.16220501  0.96698438     0.99400
O510        O  0.77115639  0.16425394  0.92929990    -0.81200
O511        O  0.86011035  0.19089359  0.93170240    -0.83800
C512        C  0.90122662  0.19324849  0.94309225     1.03900
O513        O  0.91995569  0.15927472  0.96097119    -0.76600
O514        O  0.86884792  0.14252063  0.03860763    -0.76800
C515        C  0.83989951  0.12565280  0.06503175     1.03900
O516        O  0.82314738  0.01831379  0.98838797    -0.84100
O517        O  0.75862083  0.05795241  0.93442255    -0.81100
C518        C  0.76916557  0.05803671  0.89268937     0.99400
O519        O  0.80111584  0.08228485  0.87826893    -0.81200
O520        O  0.89176910  0.10736878  0.88442482    -0.83800
C521        C  0.91841356  0.07683915  0.90084183     1.03900
O522        O  0.91605033  0.06559158  0.94222979    -0.76600
O523        O  0.88106861  0.04686048  0.02557873    -0.76700
C524        C  0.85791916  0.01294412  0.01280799     1.03800
Cr525      Cr  0.79192028  0.07732381  0.99020958     1.93700
Cr526      Cr  0.83132573  0.13384306  0.90982864     1.93200
Cr527      Cr  0.89190801  0.10404947  0.98984615     1.39100
O528        O  0.83791833  0.10517679  0.96254845    -1.21800
C529        C  0.88077162  0.13376174  0.13467079    -0.15200
C530        C  0.84105861  0.13725516  0.11265519    -0.30300
H531        H  0.91325567  0.13421005  0.11701403     0.13900
H532        H  0.80915693  0.13483574  0.13134498     0.14400
C533        C  0.78002072  0.21397116  0.38417183    -0.15200
C534        C  0.82126103  0.19600539  0.39348546    -0.30300
H535        H  0.75914908  0.19968539  0.35681107     0.13900
H536        H  0.84271630  0.21016123  0.42043185     0.14400
C537        C  0.00985535  0.22288020  0.30739510    -0.15200
C538        C  0.99741161  0.18139487  0.32253713    -0.30300
H539        H  0.99325724  0.23715211  0.27745752     0.13900
H540        H  0.01632901  0.16676871  0.35091400     0.14400
C541        C  0.89478364  0.33957675  0.38686862    -0.15200
C542        C  0.87126146  0.37510052  0.40234227    -0.30300
H543        H  0.87786525  0.30745830  0.37992031     0.13900
H544        H  0.88678192  0.40783434  0.40921207     0.14400
C545        C  0.76037031  0.41373902  0.59014694    -0.15200
C546        C  0.74220363  0.43478868  0.55305132    -0.30300
H547        H  0.74921486  0.37954625  0.59778616     0.13900
H548        H  0.75254140  0.46923778  0.54560292     0.14400
C549        C  0.98680082  0.39110664  0.53123660    -0.15200
C550        C  0.95315661  0.37174435  0.55639006    -0.30300
H551        H  0.99820551  0.42505708  0.54006321     0.13900
H552        H  0.94146129  0.33768028  0.54866836     0.14400
C553        C  0.83846038  0.60689311  0.63199189    -0.15200
C554        C  0.86255114  0.62545144  0.59817651    -0.30300
H555        H  0.82410676  0.62833105  0.65868176     0.13900
H556        H  0.88143593  0.60422568  0.57437651     0.14400
C557        C  0.02254715  0.83451754  0.72441011    -0.15200
C558        C  0.01547374  0.87643918  0.74081014    -0.30300
H559        H  0.05372153  0.81660543  0.73285681     0.13900
H560        H  0.98365937  0.89365148  0.73332024     0.14400
C561        C  0.98189564  0.02263546  0.89377950    -0.15200
C562        C  0.95569359  0.05516781  0.87383292    -0.30300
H563        H  0.97279666  0.01017595  0.92748934     0.13900
H564        H  0.96387772  0.06790917  0.84002861     0.14400
C565        C  0.97060393  0.24227762  0.94530294    -0.15200
C566        C  0.92839190  0.23349495  0.92924451    -0.30300
H567        H  0.98266935  0.22358932  0.97491464     0.13900
H568        H  0.91663554  0.25138892  0.89896619     0.14400
C569        C  0.98545920  0.39724401  0.77105419    -0.15200
C570        C  0.98895279  0.35193531  0.77344595    -0.30300
H571        H  0.00515595  0.41841343  0.79439605     0.13900
H572        H  0.96727767  0.33115993  0.75153580     0.14400
C573        C  0.13115725  0.12561624  0.88315264    -0.15200
C574        C  0.14174976  0.10193293  0.84545420    -0.30300
H575        H  0.12623361  0.10999562  0.91639425     0.13900
H576        H  0.14670530  0.11901674  0.81287175     0.14400
C577        C  0.20138376  0.37708092  0.81559379    -0.15200
C578        C  0.22637576  0.36184958  0.77977544    -0.30300
H579        H  0.21112661  0.40753935  0.83418298     0.13900
H580        H  0.21651993  0.33076836  0.76228754     0.14400
C581        C  0.16996175  0.31501162  0.99708693    -0.15200
C582        C  0.20850330  0.29726322  0.01572685    -0.30300
H583        H  0.15850554  0.34761224  0.00996525     0.13900
H584        H  0.21994187  0.26396000  0.00507056     0.14400
C585        C  0.38245404  0.36696353  0.87628914    -0.15200
C586        C  0.34208995  0.35871325  0.89529336    -0.30300
H587        H  0.41382424  0.36910779  0.89614340     0.13900
H588        H  0.31106822  0.35878603  0.87472387     0.14400
C589        C  0.79009469  0.50918139  0.81121414    -0.15200
C590        C  0.82064341  0.47565780  0.80512165    -0.30300
H591        H  0.76942612  0.51898131  0.78188101     0.13900
H592        H  0.84065000  0.46405567  0.83414647     0.14400
C593        C  0.88954593  0.67206914  0.80365008    -0.15200
C594        C  0.86504780  0.69045615  0.76877251    -0.30300
H595        H  0.92631019  0.67535547  0.80538695     0.13900
H596        H  0.82819449  0.68707941  0.76923963     0.14400
C597        C  0.45768959  0.51881703  0.74876087    -0.15200
C598        C  0.43900504  0.55898622  0.76058209    -0.30300
H599        H  0.48880517  0.50858047  0.76604843     0.13900
H600        H  0.40777864  0.56916253  0.74336492     0.14400
C601        C  0.36834858  0.52436579  0.97977871    -0.15200
C602        C  0.36117546  0.53978184  0.93680418    -0.30300
H603        H  0.39286480  0.54135266  0.00199812     0.13900
H604        H  0.33656285  0.52348689  0.91420586     0.14400
C605        C  0.61829432  0.61553114  0.88472438    -0.15200
C606        C  0.64262046  0.61646540  0.92352445    -0.30300
H607        H  0.63374112  0.61231852  0.85107622     0.13900
H608        H  0.62619226  0.61718680  0.95690226     0.14400
C609        C  0.37251658  0.88516267  0.34293891    -0.15200
C610        C  0.37972802  0.86457931  0.38300337    -0.30300
H611        H  0.37339585  0.86608712  0.31091750     0.13900
H612        H  0.38053382  0.88284249  0.41545707     0.14400
C613        C  0.93272775  0.92955281  0.24203320    -0.15200
C614        C  0.95257235  0.96973810  0.25214822    -0.30300
H615        H  0.90157689  0.92025492  0.25959495     0.13900
H616        H  0.98342926  0.97899146  0.23409483     0.14400
C617        C  0.88154139  0.74074733  0.03233062    -0.15200
C618        C  0.89466370  0.70223582  0.01157577    -0.30300
H619        H  0.84695645  0.75288725  0.02747985     0.13900
H620        H  0.92838976  0.68847899  0.01770243     0.14400
C621        C  0.87421153  0.96772211  0.02434359    -0.15200
C622        C  0.86161257  0.94541045  0.06257724    -0.30300
H623        H  0.90438680  0.95722090  0.00574585     0.13900
H624        H  0.83196126  0.95600450  0.08191397     0.14400
C625        C  0.03368712  0.88139244  0.97043427    -0.15200
C626        C  0.05350015  0.85486035  0.93829750    -0.30300
H627        H  0.03804497  0.91780690  0.96775748     0.13900
H628        H  0.05016916  0.81830640  0.93870115     0.14400
C629        C  0.26423117  0.93650526  0.95699546    -0.15200
C630        C  0.24589055  0.91542468  0.91985778    -0.30300
H631        H  0.25525686  0.97124357  0.96498626     0.13900
H632        H  0.25637588  0.88063399  0.91371415     0.14400
C633        C  0.32569450  0.98862853  0.17264181    -0.15200
C634        C  0.30896824  0.00604607  0.21209893    -0.30300
H635        H  0.35871394  0.00059073  0.16113654     0.13900
H636        H  0.27526666  0.99647508  0.22367680     0.14400
C637        C  0.38742427  0.77776263  0.99520370    -0.15200
C638        C  0.37327924  0.74596224  0.96524299    -0.30300
H639        H  0.42359117  0.78363296  0.00061332     0.13900
H640        H  0.33709159  0.73964068  0.96058021     0.14400
C641        C  0.36202161  0.77507832  0.22834910    -0.15200
C642        C  0.38028057  0.80858245  0.20254459    -0.30300
H643        H  0.32791404  0.76283761  0.22072217     0.13900
H644        H  0.41363468  0.82237920  0.21075876     0.14400
C645        C  0.13889746  0.88976524  0.09279311    -0.15200
C646        C  0.11639244  0.88154241  0.13140418    -0.30300
H647        H  0.12087678  0.89066005  0.06008154     0.13900
H648        H  0.13355413  0.87778831  0.16428455     0.14400
C649        C  0.51254859  0.80648928  0.82249143    -0.15200
C650        C  0.50151275  0.76520168  0.80583617    -0.30300
H651        H  0.49550597  0.81847629  0.85322841     0.13900
H652        H  0.51859729  0.75289592  0.77530140     0.14400
C653        C  0.71422372  0.99781339  0.87552100    -0.15200
C654        C  0.74328199  0.02936734  0.86023710    -0.30300
H655        H  0.71052177  0.99252427  0.91217421     0.13900
H656        H  0.74861927  0.03364269  0.82367487     0.14400
C657        C  0.69687550  0.79020165  0.88683598    -0.15200
C658        C  0.73542909  0.76983395  0.87148813    -0.30300
H659        H  0.68068999  0.77928490  0.91827133     0.13900
H660        H  0.75087892  0.78159664  0.83992343     0.14400
C661        C  0.78356765  0.85613745  0.72806851    -0.15200
C662        C  0.80953523  0.87241515  0.69353587    -0.30300
H663        H  0.79184170  0.82347977  0.74280431     0.13900
H664        H  0.80123001  0.90433923  0.67731994     0.14400
C665        C  0.79852789  0.80060402  0.48698271    -0.15200
C666        C  0.83644291  0.81941226  0.50599308    -0.30300
H667        H  0.78854019  0.76654387  0.49636887     0.13900
H668        H  0.84655137  0.85296569  0.49485958     0.14400
C669        C  0.57995496  0.75736547  0.42646985    -0.15200
C670        C  0.54108682  0.74385286  0.44711916    -0.30300
H671        H  0.58780882  0.74334403  0.39290220     0.13900
H672        H  0.53291953  0.75739928  0.48075559     0.14400
C673        C  0.76796543  0.95883915  0.35968062    -0.15200
C674        C  0.79646045  0.99142290  0.37442644    -0.30300
H675        H  0.76342894  0.95259162  0.32318858     0.13900
H676        H  0.79996758  0.99808824  0.41097363     0.14400
C677        C  0.56030565  0.93417805  0.36345779    -0.15200
C678        C  0.53631297  0.97007523  0.37954026    -0.30300
H679        H  0.55059598  0.91773145  0.33147596     0.13900
H680        H  0.54571846  0.98543365  0.41216871     0.14400
C681        C  0.66329646  0.85655009  0.61057265    -0.15200
C682        C  0.62394290  0.86110544  0.63273657    -0.30300
H683        H  0.69542552  0.85722098  0.62937097     0.13900
H684        H  0.59130375  0.86241174  0.61507108     0.14400
C685        C  0.42785266  0.25764665  0.07303814    -0.15200
C686        C  0.46825456  0.24833851  0.05307057    -0.30300
H687        H  0.41899486  0.23981937  0.10424103     0.13900
H688        H  0.47725143  0.26659772  0.02219730     0.14400
C689        C  0.67412860  0.18040982  0.99742542    -0.15200
C690        C  0.71454346  0.19594345  0.98179116    -0.30300
H691        H  0.66121765  0.14879832  0.98320964     0.13900
H692        H  0.72758741  0.22794223  0.99478700     0.14400
C693        C  0.46739056  0.14031091  0.24331348    -0.15200
C694        C  0.50080005  0.12819214  0.21450884    -0.30300
H695        H  0.45826186  0.17570685  0.24719359     0.13900
H696        H  0.50983046  0.09267178  0.21144533     0.14400
C697        C  0.70430646  0.11711200  0.18217639    -0.15200
C698        C  0.72409411  0.13069219  0.22225396    -0.30300
H699        H  0.71714266  0.08798127  0.16351183     0.13900
H700        H  0.71101136  0.16055423  0.23957948     0.14400
C701        C  0.64554736  0.27918693  0.27397695    -0.15200
C702        C  0.62594768  0.30871147  0.30379124    -0.30300
H703        H  0.68051022  0.26853962  0.27945160     0.13900
H704        H  0.59187797  0.32152294  0.29753610     0.14400
C705        C  0.70153690  0.49977320  0.29572537    -0.15200
C706        C  0.68362690  0.48377074  0.33533227    -0.30300
H707        H  0.73534958  0.48938522  0.28523262     0.13900
H708        H  0.65065106  0.49668030  0.34585009     0.14400
C709        C  0.74587564  0.56408053  0.07427270    -0.15200
C710        C  0.75724745  0.54721113  0.03240729    -0.30300
H711        H  0.76603440  0.59173098  0.08839075     0.13900
H712        H  0.73927965  0.51799827  0.01862480     0.14400
C713        C  0.50586576  0.61943232  0.28904817    -0.15200
C714        C  0.54199464  0.63114085  0.26372196    -0.30300
H715        H  0.49541935  0.58417943  0.29030338     0.13900
H716        H  0.55285960  0.66626243  0.26259858     0.14400
C717        C  0.56157355  0.62618546  0.06240183    -0.15200
C718        C  0.52352771  0.61021485  0.04106814    -0.30300
H719        H  0.57829284  0.65660506  0.05030504     0.13900
H720        H  0.50810377  0.57905102  0.05304272     0.14400
C721        C  0.65016115  0.38510059  0.15411166    -0.15200
C722        C  0.63420975  0.36641614  0.11545685    -0.30300
H723        H  0.65538787  0.36476165  0.18464742     0.13900
H724        H  0.62554582  0.38633610  0.08542186     0.14400
C725        C  0.48256457  0.45565140  0.11769425    -0.15200
C726        C  0.44877539  0.43259741  0.13921792    -0.30300
H727        H  0.48167401  0.45828323  0.08055671     0.13900
H728        H  0.45062234  0.42611704  0.17577834     0.14400
C729        C  0.50937498  0.26690726  0.70795330    -0.15200
C730        C  0.49826043  0.30767776  0.69052420    -0.30300
H731        H  0.49259877  0.25554405  0.73891330     0.13900
H732        H  0.51509688  0.31860980  0.65937609     0.14400
C733        C  0.55245724  0.01567776  0.75695105    -0.15200
C734        C  0.57058926  0.05663967  0.74778486    -0.30300
H735        H  0.52246376  0.00510265  0.73774874     0.13900
H736        H  0.60093301  0.06716240  0.76650996     0.14400
C737        C  0.63627363  0.24805781  0.54942402    -0.15200
C738        C  0.62230875  0.27852546  0.51841773    -0.30300
H739        H  0.67248383  0.24287699  0.55507117     0.13900
H740        H  0.58616937  0.28249357  0.51144636     0.14400
C741        C  0.64535720  0.04147216  0.56933260    -0.15200
C742        C  0.63547677  0.02482759  0.52710628    -0.30300
H743        H  0.67186081  0.02632020  0.59027249     0.13900
H744        H  0.60876435  0.04033855  0.50667044     0.14400
C745        C  0.44599106  0.12781092  0.44999810    -0.15200
C746        C  0.48384348  0.11209275  0.47140793    -0.30300
H747        H  0.42843369  0.15751875  0.46289342     0.13900
H748        H  0.50028322  0.08166067  0.45867320     0.14400
C749        C  0.26570653  0.06381668  0.42901723    -0.15200
C750        C  0.25121522  0.04581601  0.46917367    -0.30300
H751        H  0.24833235  0.09368362  0.41627995     0.13900
H752        H  0.26589134  0.01451469  0.48162721     0.14400
C753        C  0.19697334  0.97831281  0.71576910    -0.15200
C754        C  0.17956399  0.99281272  0.67534505    -0.30300
H755        H  0.22977794  0.99056488  0.72786858     0.13900
H756        H  0.14682290  0.97890984  0.66474647     0.14400
C757        C  0.12825840  0.21631485  0.50392306    -0.15200
C758        C  0.14287663  0.24541141  0.47246588    -0.30300
H759        H  0.09198650  0.21169542  0.50946242     0.13900
H760        H  0.17863176  0.24618895  0.46308133     0.14400
C761        C  0.11576760  0.18108717  0.69078369    -0.15200
C762        C  0.14115408  0.20234635  0.72341275    -0.30300
H763        H  0.07901883  0.18454156  0.68945559     0.13900
H764        H  0.17787657  0.19797669  0.72258064     0.14400
C765        C  0.36727087  0.10327974  0.59512771    -0.15200
C766        C  0.39087640  0.11488758  0.63269234    -0.30300
H767        H  0.38446094  0.09831570  0.56250223     0.13900
H768        H  0.37507985  0.12007893  0.66590793     0.14400
C769        C  0.31836659  0.28113379  0.62918816    -0.15200
C770        C  0.28437284  0.25579530  0.64778927    -0.30300
H771        H  0.33229416  0.27274554  0.59581485     0.13900
H772        H  0.27083289  0.26497500  0.68116092     0.14400
C773        C  0.04624008  0.46695013  0.25114795    -0.15200
C774        C  0.06711994  0.42723878  0.25978297    -0.30300
H775        H  0.01565464  0.47519945  0.27014833     0.13900
H776        H  0.09926919  0.42107572  0.24249308     0.14400
C777        C  0.99907677  0.72181877  0.20129475    -0.15200
C778        C  0.00774418  0.67970413  0.18551315    -0.30300
H779        H  0.01790464  0.73387792  0.23110473     0.13900
H780        H  0.98953728  0.66764630  0.15528528     0.14400
C781        C  0.20803281  0.48796580  0.13579633    -0.15200
C782        C  0.23648561  0.45519261  0.14981639    -0.30300
H783        H  0.20535913  0.49543290  0.09943237     0.13900
H784        H  0.24041629  0.44801417  0.18610612     0.14400
C785        C  0.18513253  0.69662261  0.12119291    -0.15200
C786        C  0.22056227  0.72213576  0.13647730    -0.30300
H787        H  0.16852270  0.70423458  0.08879683     0.13900
H788        H  0.23584686  0.71515949  0.16968172     0.14400
C789        C  0.29960410  0.61316551  0.32525308    -0.15200
C790        C  0.27756696  0.62597930  0.28642911    -0.30300
H791        H  0.28787813  0.58429852  0.34478646     0.13900
H792        H  0.28951907  0.65560685  0.26816340     0.14400
C793        C  0.33393745  0.67593993  0.50409610    -0.15200
C794        C  0.29405366  0.69136237  0.52085813    -0.30300
H795        H  0.34661653  0.64374847  0.51662068     0.13900
H796        H  0.28130424  0.72408492  0.51010172     0.14400
C797        C  0.07996313  0.73355362  0.57713227    -0.15200
C798        C  0.04021521  0.74197671  0.55534541    -0.30300
H799        H  0.08768805  0.75138520  0.60892535     0.13900
H800        H  0.03287255  0.72287358  0.52422755     0.14400
C801        C  0.29419145  0.49365699  0.62991216    -0.15200
C802        C  0.26675724  0.52699189  0.64469222    -0.30300
H803        H  0.29569448  0.48552754  0.59356110     0.13900
H804        H  0.26433988  0.53447206  0.68112110     0.14400
C805        C  0.01572039  0.54808180  0.61756364    -0.15200
C806        C  0.05390864  0.56119290  0.64033037    -0.30300
H807        H  0.01431355  0.55222586  0.58055103     0.13900
H808        H  0.05566593  0.56099248  0.67751072     0.14400
C809        C  0.15851988  0.63735689  0.39688947    -0.15200
C810        C  0.11869427  0.63003528  0.37580903    -0.30300
H811        H  0.18990807  0.63784293  0.37720835     0.13900
H812        H  0.08697166  0.62670336  0.39451681     0.14400
C813        C  0.12542072  0.47062344  0.46754526    -0.15200
C814        C  0.14976974  0.43832212  0.44562901    -0.30300
H815        H  0.08863489  0.47060304  0.46321574     0.13900
H816        H  0.18653451  0.43644034  0.44885698     0.14400
loop_ 
_geom_bond_atom_site_label_1 
_geom_bond_atom_site_label_2 
_geom_bond_distance 
_geom_bond_site_symmetry_2 
_ccdc_geom_bond_type 
O1          Cr19   1.996       .  S
O1            C9   1.270       .  A
O2          Cr19   1.943       .  S
O2            C3   1.253       .  A
C3            O4   1.275       .  A
C3          C794   1.485       .  S
O4          Cr20   2.042       .  S
O5          Cr20   2.000       .  S
O5            C6   1.254       .  A
C6            O7   1.255       .  A
C6          C797   1.490       .  S
O7          Cr21   1.998       .  S
O8          Cr21   1.942       .  S
O8            C9   1.258       .  A
C9          C809   1.434       .  S
O10         Cr19   1.998       .  S
O10          C18   1.255       .  A
O11         Cr19   1.976       .  S
O11          C12   1.259       .  A
C12          O13   1.260       .  A
C12         C802   1.477       .  S
O13         Cr20   1.987       .  S
O14         Cr20   2.071       .  S
O14          C15   1.286       .  A
C15          O16   1.260       .  A
C15         C806   1.489       .  S
O16         Cr21   1.933       .  S
O17         Cr21   1.992       .  S
O17          C18   1.256       .  A
C18         C813   1.473       .  S
Cr19         O22   1.789       .  S
Cr20         O22   1.782       .  S
Cr21         O22   1.770       .  S
O23         Cr41   1.996       .  S
O23          C31   1.269       .  A
O24         Cr41   1.949       .  S
O24          C25   1.253       .  A
C25          O26   1.279       .  A
C25         C773   1.487       .  S
O26         Cr42   2.064       .  S
O27         Cr42   1.991       .  S
O27          C28   1.260       .  A
C28          O29   1.266       .  A
C28         C778   1.491       .  S
O29         Cr43   2.020       .  S
O30         Cr43   1.950       .  S
O30          C31   1.250       .  A
C31         C810   1.441       .  S
O32         Cr41   1.984       .  S
O32          C40   1.259       .  A
O33         Cr41   2.017       .  S
O33          C34   1.266       .  A
C34          O35   1.256       .  A
C34         C781   1.474       .  S
O35         Cr42   1.964       .  S
O36         Cr42   2.066       .  S
O36          C37   1.280       .  A
C37          O38   1.252       .  A
C37         C785   1.489       .  S
O38         Cr43   1.933       .  S
O39         Cr43   2.020       .  S
O39          C40   1.267       .  A
C40         C790   1.472       .  S
Cr41         O44   1.775       .  S
Cr42         O44   1.771       .  S
Cr43         O44   1.763       .  S
O45         Cr63   1.961       .  S
O45          C53   1.259       .  A
O46         Cr63   1.987       .  S
O46          C47   1.256       .  A
C47          O48   1.275       .  A
C47         C750   1.501       .  S
O48         Cr64   2.049       .  S
O49         Cr64   1.996       .  S
O49          C50   1.262       .  A
C50          O51   1.265       .  A
C50         C754   1.493   1_545  S
O51         Cr65   2.013       .  S
O52         Cr65   1.966       .  S
O52          C53   1.264       .  A
C53         C765   1.444       .  S
O54         Cr63   1.997       .  S
O54          C62   1.256       .  A
O55         Cr63   1.972       .  S
O55          C56   1.261       .  A
C56          O57   1.263       .  A
C56         C757   1.458       .  S
O57         Cr64   1.995       .  S
O58         Cr64   2.032       .  S
O58          C59   1.272       .  A
C59          O60   1.260       .  A
C59         C761   1.491       .  S
O60         Cr65   1.970       .  S
O61         Cr65   1.996       .  S
O61          C62   1.264       .  A
C62         C770   1.477       .  S
Cr63         O66   1.783       .  S
Cr64         O66   1.763       .  S
Cr65         O66   1.770       .  S
O67         Cr85   2.004       .  S
O67          C75   1.270       .  A
O68         Cr85   1.940       .  S
O68          C69   1.252       .  A
C69          O70   1.279       .  A
C69         C729   1.481       .  S
O70         Cr86   2.057       .  S
O71         Cr86   1.992       .  S
O71          C72   1.258       .  A
C72          O73   1.264       .  A
C72         C734   1.491       .  S
O73         Cr87   2.020       .  S
O74         Cr87   1.941       .  S
O74          C75   1.250       .  A
C75         C766   1.433       .  S
O76         Cr85   1.975       .  S
O76          C84   1.255       .  A
O77         Cr85   2.008       .  S
O77          C78   1.266       .  A
C78          O79   1.257       .  A
C78         C737   1.478       .  S
O79         Cr86   1.973       .  S
O80         Cr86   2.064       .  S
O80          C81   1.281       .  A
C81          O82   1.253       .  A
C81         C741   1.481       .  S
O82         Cr87   1.925       .  S
O83         Cr87   2.021       .  S
O83          C84   1.266       .  A
C84         C746   1.467       .  S
Cr85         O88   1.775       .  S
Cr86         O88   1.771       .  S
Cr87         O88   1.765       .  S
O89        Cr107   2.002       .  S
O89          C97   1.276       .  A
O90        Cr107   1.950       .  S
O90          C91   1.253       .  A
C91          O92   1.278       .  A
C91         C705   1.497       .  S
O92        Cr108   2.053       .  S
O93        Cr108   2.002       .  S
O93          C94   1.253       .  A
C94          O95   1.253       .  A
C94         C709   1.496       .  S
O95        Cr109   2.014       .  S
O96        Cr109   1.933       .  S
O96          C97   1.261       .  A
C97         C721   1.426       .  S
O98        Cr107   1.997       .  S
O98         C106   1.252       .  A
O99        Cr107   1.982       .  S
O99         C100   1.261       .  A
C100        O101   1.259       .  A
C100        C714   1.480       .  S
O101       Cr108   1.985       .  S
O102       Cr108   2.084       .  S
O102        C103   1.294       .  A
C103        O104   1.263       .  A
C103        C717   1.490       .  S
O104       Cr109   1.924       .  S
O105       Cr109   2.004       .  S
O105        C106   1.256       .  A
C106        C725   1.478       .  S
Cr107       O110   1.783       .  S
Cr108       O110   1.768       .  S
Cr109       O110   1.773       .  S
O111       Cr129   2.000       .  S
O111        C119   1.270       .  A
O112       Cr129   1.939       .  S
O112        C113   1.251       .  A
C113        O114   1.282       .  A
C113        C686   1.485       .  S
O114       Cr130   2.069       .  S
O115       Cr130   1.992       .  S
O115        C116   1.258       .  A
C116        O117   1.265       .  A
C116        C689   1.493   1_554  S
O117       Cr131   2.026       .  S
O118       Cr131   1.941       .  S
O118        C119   1.248       .  A
C119        C722   1.433       .  S
O120       Cr129   1.978       .  S
O120        C128   1.257       .  A
O121       Cr129   2.019       .  S
O121        C122   1.266       .  A
C122        O123   1.254       .  A
C122        C694   1.476       .  S
O123       Cr130   1.961       .  S
O124       Cr130   2.076       .  S
O124        C125   1.284       .  A
C125        O126   1.251       .  A
C125        C697   1.492       .  S
O126       Cr131   1.923       .  S
O127       Cr131   2.022       .  S
O127        C128   1.269       .  A
C128        C701   1.470       .  S
Cr129       O132   1.780       .  S
Cr130       O132   1.765       .  S
Cr131       O132   1.764       .  S
O133       Cr151   1.994       .  S
O133        C141   1.269       .  A
O134       Cr151   1.924       .  S
O134        C135   1.249       .  A
C135        O136   1.281       .  A
C135        C665   1.487       .  S
O136       Cr152   2.063       .  S
O137       Cr152   1.996       .  S
O137        C138   1.256       .  A
C138        O139   1.260       .  A
C138        C669   1.495       .  S
O139       Cr153   2.020       .  S
O140       Cr153   1.939       .  S
O140        C141   1.257       .  A
C141        C681   1.431       .  S
O142       Cr151   1.972       .  S
O142        C150   1.250       .  A
O143       Cr151   1.977       .  S
O143        C144   1.259       .  A
C144        O145   1.256       .  A
C144        C673   1.476       .  S
O145       Cr152   1.982       .  S
O146       Cr152   2.074       .  S
O146        C147   1.288       .  A
C147        O148   1.259       .  A
C147        C677   1.492       .  S
O148       Cr153   1.932       .  S
O149       Cr153   2.020       .  S
O149        C150   1.262       .  A
C150        C742   1.464   1_565  S
Cr151       O154   1.780       .  S
Cr152       O154   1.775       .  S
Cr153       O154   1.775       .  S
O155       Cr173   1.986       .  S
O155        C163   1.267       .  A
O156       Cr173   1.938       .  S
O156        C157   1.252       .  A
C157        O158   1.281       .  A
C157        C733   1.480   1_565  S
O158       Cr174   2.065       .  S
O159       Cr174   1.989       .  S
O159        C160   1.257       .  A
C160        O161   1.264       .  A
C160        C649   1.490       .  S
O161       Cr175   2.019       .  S
O162       Cr175   1.954       .  S
O162        C163   1.250       .  A
C163        C682   1.440       .  S
O164       Cr173   1.982       .  S
O164        C172   1.259       .  A
O165       Cr173   2.001       .  S
O165        C166   1.262       .  A
C166        O167   1.254       .  A
C166        C653   1.469       .  S
O167       Cr174   1.966       .  S
O168       Cr174   2.068       .  S
O168        C169   1.282       .  A
C169        O170   1.252       .  A
C169        C657   1.489       .  S
O170       Cr175   1.924       .  S
O171       Cr175   2.022       .  S
O171        C172   1.269       .  A
C172        C661   1.471       .  S
Cr173       O176   1.776       .  S
Cr174       O176   1.770       .  S
Cr175       O176   1.766       .  S
O177       Cr195   1.990       .  S
O177        C185   1.268       .  A
O178       Cr195   1.932       .  S
O178        C179   1.252   1_554  A
C179        O180   1.279   1_556  A
C179        C629   1.491       .  S
O180       Cr196   2.057       .  S
O181       Cr196   1.985       .  S
O181        C182   1.251       .  A
C182        O183   1.259       .  A
C182        C633   1.489       .  S
O183       Cr197   2.024       .  S
O184       Cr197   1.942       .  S
O184        C185   1.258       .  A
C185        C645   1.429       .  S
O186       Cr195   1.982       .  S
O186        C194   1.254       .  A
O187       Cr195   1.980       .  S
O187        C188   1.259       .  A
C188        O189   1.256       .  A
C188        C637   1.475   1_554  S
O189       Cr196   1.978       .  S
O190       Cr196   2.077       .  S
O190        C191   1.289       .  A
C191        O192   1.258       .  A
C191        C642   1.492       .  S
O192       Cr197   1.926       .  S
O193       Cr197   2.017       .  S
O193        C194   1.262       .  A
C194        C786   1.469       .  S
Cr195       O198   1.779       .  S
Cr196       O198   1.772       .  S
Cr197       O198   1.776       .  S
O199       Cr217   1.996       .  S
O199        C207   1.269       .  A
O200       Cr217   1.946       .  S
O200        C201   1.253   1_455  A
C201        O202   1.278       .  A
C201        C777   1.481       .  S
O202       Cr218   2.056       .  S
O203       Cr218   1.999       .  S
O203        C204   1.261       .  A
C204        O205   1.262       .  A
C204        C613   1.490       .  S
O205       Cr219   2.007       .  S
O206       Cr219   1.946   1_455  S
O206        C207   1.249       .  A
C207        C646   1.437       .  S
O208       Cr217   1.993   1_655  S
O208        C216   1.259   1_655  A
O209       Cr217   2.006   1_655  S
O209        C210   1.263       .  A
C210        O211   1.257       .  A
C210        C617   1.470       .  S
O211       Cr218   1.970       .  S
O212       Cr218   2.058       .  S
O212        C213   1.278       .  A
C213        O214   1.253       .  A
C213        C622   1.481       .  S
O214       Cr219   1.927       .  S
O215       Cr219   2.006   1_455  S
O215        C216   1.265       .  A
C216        C625   1.474   1_554  S
Cr217       O220   1.779   1_455  S
Cr218       O220   1.771       .  S
Cr219       O220   1.761       .  S
O221       Cr239   1.997   1_565  S
O221        C229   1.271       .  A
O222       Cr239   1.940       .  S
O222        C223   1.253       .  A
C223        O224   1.277       .  A
C223        C634   1.489       .  S
O224       Cr240   2.048       .  S
O225       Cr240   1.991       .  S
O225        C226   1.252       .  A
C226        O227   1.258       .  A
C226        C749   1.497       .  S
O227       Cr241   2.028       .  S
O228       Cr241   1.939   1_565  S
O228        C229   1.260       .  A
C229        C609   1.432       .  S
O230       Cr239   1.985       .  S
O230        C238   1.253   1_545  A
O231       Cr239   1.981       .  S
O231        C232   1.260       .  A
C232        O233   1.257       .  A
C232        C693   1.484       .  S
O233       Cr240   1.988       .  S
O234       Cr240   2.071       .  S
O234        C235   1.288       .  A
C235        O236   1.259       .  A
C235        C745   1.486       .  S
O236       Cr241   1.923       .  S
O237       Cr241   2.016   1_565  S
O237        C238   1.260       .  A
C238        C678   1.472       .  S
Cr239       O242   1.784       .  S
Cr240       O242   1.776       .  S
Cr241       O242   1.778       .  S
O243       Cr261   1.992       .  S
O243        C251   1.269       .  A
O244       Cr261   1.939       .  S
O244        C245   1.252       .  A
C245        O246   1.282       .  A
C245        C670   1.488       .  S
O246       Cr262   2.068       .  S
O247       Cr262   1.984       .  S
O247        C248   1.256       .  A
C248        O249   1.264       .  A
C248        C793   1.489       .  S
O249       Cr263   2.025       .  S
O250       Cr263   1.952       .  S
O250        C251   1.252       .  A
C251        C610   1.441       .  S
O252       Cr261   1.980       .  S
O252        C260   1.259       .  A
O253       Cr261   2.012       .  S
O253        C254   1.264       .  A
C254        O255   1.254       .  A
C254        C713   1.476       .  S
O255       Cr262   1.966       .  S
O256       Cr262   2.071       .  S
O256        C257   1.283       .  A
C257        O258   1.254       .  A
C257        C789   1.490       .  S
O258       Cr263   1.928       .  S
O259       Cr263   2.021       .  S
O259        C260   1.268       .  A
C260        C641   1.470       .  S
Cr261       O264   1.780       .  S
Cr262       O264   1.770       .  S
Cr263       O264   1.771       .  S
O265       Cr283   1.979       .  S
O265        C273   1.265       .  A
O266       Cr283   1.944       .  S
O266        C267   1.253       .  A
C267        O268   1.278       .  A
C267        C650   1.481       .  S
O268       Cr284   2.055       .  S
O269       Cr284   1.991       .  S
O269        C270   1.258       .  A
C270        O271   1.266       .  A
C270        C598   1.494       .  S
O271       Cr285   2.027       .  S
O272       Cr285   1.945       .  S
O272        C273   1.250       .  A
C273        C605   1.430       .  S
O274       Cr283   1.979       .  S
O274        C282   1.258       .  A
O275       Cr283   1.997       .  S
O275        C276   1.262       .  A
C276        O277   1.256       .  A
C276        C638   1.472       .  S
O277       Cr284   1.973       .  S
O278       Cr284   2.058       .  S
O278        C279   1.279       .  A
C279        O280   1.253       .  A
C279        C602   1.479       .  S
O280       Cr285   1.930       .  S
O281       Cr285   2.025       .  S
O281        C282   1.269       .  A
C282        C718   1.472   1_556  S
Cr283       O286   1.779       .  S
Cr284       O286   1.772       .  S
Cr285       O286   1.767       .  S
O287       Cr305   1.958       .  S
O287        C295   1.255       .  A
O288       Cr305   1.989   1_554  S
O288        C289   1.257       .  A
C289        O290   1.274   1_554  A
C289        C710   1.500       .  S
O290       Cr306   2.044       .  S
O291       Cr306   2.040       .  S
O291        C292   1.271       .  A
C292        O293   1.259       .  A
C292        C589   1.491       .  S
O293       Cr307   1.981       .  S
O294       Cr307   1.955       .  S
O294        C295   1.260       .  A
C295        C606   1.435       .  S
O296       Cr305   2.015       .  S
O296        C304   1.262       .  A
O297       Cr305   1.958       .  S
O297        C298   1.262       .  A
C298        O299   1.273       .  A
C298        C618   1.477   1_556  S
O299       Cr306   2.031       .  S
O300       Cr306   2.039       .  S
O300        C301   1.274       .  A
C301        O302   1.257       .  A
C301        C593   1.494       .  S
O302       Cr307   1.965       .  S
O303       Cr307   1.986       .  S
O303        C304   1.263       .  A
C304        C658   1.476       .  S
Cr305       O308   1.774       .  S
Cr306       O308   1.766       .  S
Cr307       O308   1.754       .  S
O309       Cr327   1.996   1_556  S
O309        C317   1.270       .  A
O310       Cr327   1.926       .  S
O310        C311   1.249       .  A
C311        O312   1.283       .  A
C311        C582   1.493       .  S
O312       Cr328   2.069       .  S
O313       Cr328   1.998       .  S
O313        C314   1.254       .  A
C314        O315   1.257       .  A
C314        C685   1.495       .  S
O315       Cr329   2.015       .  S
O316       Cr329   1.933   1_556  S
O316        C317   1.257       .  A
C317        C586   1.426       .  S
O318       Cr327   1.976       .  S
O318        C326   1.250   1_554  A
O319       Cr327   1.973       .  S
O319        C320   1.258       .  A
C320        O321   1.259       .  A
C320        C782   1.482       .  S
O321       Cr328   1.992       .  S
O322       Cr328   2.088       .  S
O322        C323   1.292       .  A
C323        O324   1.260       .  A
C323        C726   1.499       .  S
O324       Cr329   1.930       .  S
O325       Cr329   2.020   1_556  S
O325        C326   1.260       .  A
C326        C601   1.465       .  S
Cr327       O330   1.779       .  S
Cr328       O330   1.771       .  S
Cr329       O330   1.773       .  S
O331       Cr349   1.990       .  S
O331        C339   1.267       .  A
O332       Cr349   1.930       .  S
O332        C333   1.251       .  A
C333        O334   1.284       .  A
C333        C597   1.483       .  S
O334       Cr350   2.075       .  S
O335       Cr350   1.989       .  S
O335        C336   1.258       .  A
C336        O337   1.264       .  A
C336        C730   1.491       .  S
O337       Cr351   2.021       .  S
O338       Cr351   1.945       .  S
O338        C339   1.247       .  A
C339        C585   1.433       .  S
O340       Cr349   1.971       .  S
O340        C348   1.256       .  A
O341       Cr349   2.001       .  S
O341        C342   1.262       .  A
C342        O343   1.256       .  A
C342        C801   1.473       .  S
O343       Cr350   1.973       .  S
O344       Cr350   2.078       .  S
O344        C345   1.285       .  A
C345        O346   1.250       .  A
C345        C769   1.492       .  S
O346       Cr351   1.917       .  S
O347       Cr351   2.027       .  S
O347        C348   1.270       .  A
C348        C578   1.464       .  S
Cr349       O352   1.776       .  S
Cr350       O352   1.765       .  S
Cr351       O352   1.762       .  S
O353       Cr371   1.990       .  S
O353        C361   1.265       .  A
O354       Cr371   1.947       .  S
O354        C355   1.254       .  A
C355        O356   1.279       .  A
C355        C565   1.480   1_455  S
O356       Cr372   2.055       .  S
O357       Cr372   2.001       .  S
O357        C358   1.261       .  A
C358        O359   1.263       .  A
C358        C581   1.497       .  S
O359       Cr373   2.021       .  S
O360       Cr373   1.949       .  S
O360        C361   1.249       .  A
C361        C573   1.436       .  S
O362       Cr371   1.991       .  S
O362        C370   1.261       .  A
O363       Cr371   1.996       .  S
O363        C364   1.261       .  A
C364        O365   1.262       .  A
C364        C570   1.483   1_455  S
O365       Cr372   1.997       .  S
O366       Cr372   2.062       .  S
O366        C367   1.280       .  A
C367        O368   1.252       .  A
C367        C577   1.485       .  S
O368       Cr373   1.919       .  S
O369       Cr373   2.018       .  S
O369        C370   1.269       .  A
C370        C762   1.478       .  S
Cr371       O374   1.780       .  S
Cr372       O374   1.777       .  S
Cr373       O374   1.766       .  S
O375       Cr393   1.964   1_545  S
O375        C383   1.258       .  A
O376       Cr393   1.994       .  S
O376        C377   1.261       .  A
C377        O378   1.271       .  A
C377        C753   1.500       .  S
O378       Cr394   2.035       .  S
O379       Cr394   2.008       .  S
O379        C380   1.267       .  A
C380        O381   1.264       .  A
C380        C630   1.493       .  S
O381       Cr395   2.009       .  S
O382       Cr395   1.960   1_545  S
O382        C383   1.260       .  A
C383        C574   1.444       .  S
O384       Cr393   2.008   1_545  S
O384        C392   1.260       .  A
O385       Cr393   1.969       .  S
O385        C386   1.258       .  A
C386        O387   1.269       .  A
C386        C558   1.472       .  S
O387       Cr394   2.017       .  S
O388       Cr394   2.027       .  S
O388        C389   1.270       .  A
C389        O390   1.260       .  A
C389        C626   1.487       .  S
O390       Cr395   1.972       .  S
O391       Cr395   1.998       .  S
O391        C392   1.266   1_565  A
C392        C561   1.483   1_455  S
Cr393       O396   1.774       .  S
Cr394       O396   1.766       .  S
Cr395       O396   1.768       .  S
O397       Cr415   2.000       .  S
O397        C405   1.268       .  A
O398       Cr415   1.945       .  S
O398        C399   1.252       .  A
C399        O400   1.278       .  A
C399        C798   1.477   1_655  S
O400       Cr416   2.062       .  S
O401       Cr416   1.998       .  S
O401        C402   1.263       .  A
C402        O403   1.266       .  A
C402        C666   1.490       .  S
O403       Cr417   2.017       .  S
O404       Cr417   1.946       .  S
O404        C405   1.248       .  A
C405        C554   1.440       .  S
O406       Cr415   1.991       .  S
O406        C414   1.260       .  A
O407       Cr415   2.012       .  S
O407        C408   1.265       .  A
C408        O409   1.260       .  A
C408        C557   1.475   1_655  S
O409       Cr416   1.973       .  S
O410       Cr416   2.066       .  S
O410        C411   1.279       .  A
C411        O412   1.251       .  A
C411        C662   1.491       .  S
O412       Cr417   1.933       .  S
O413       Cr417   2.015       .  S
O413        C414   1.269       .  A
C414        C594   1.478       .  S
Cr415       O418   1.772       .  S
Cr416       O418   1.769       .  S
Cr417       O418   1.758       .  S
O419       Cr437   1.998       .  S
O419        C427   1.266       .  A
O420       Cr437   1.954       .  S
O420        C421   1.253       .  A
C421        O422   1.278       .  A
C421        C590   1.487       .  S
O422       Cr438   2.065       .  S
O423       Cr438   2.009       .  S
O423        C424   1.265       .  A
C424        O425   1.263       .  A
C424        C545   1.491       .  S
O425       Cr439   2.005       .  S
O426       Cr439   1.947       .  S
O426        C427   1.249       .  A
C427        C553   1.437       .  S
O428       Cr437   1.990       .  S
O428        C436   1.260       .  A
O429       Cr437   2.016       .  S
O429        C430   1.266       .  A
C430        O431   1.263       .  A
C430        C569   1.486       .  S
O431       Cr438   1.982       .  S
O432       Cr438   2.069       .  S
O432        C433   1.282       .  A
C433        O434   1.253       .  A
C433        C550   1.493       .  S
O434       Cr439   1.938       .  S
O435       Cr439   2.009       .  S
O435        C436   1.267       .  A
C436        C805   1.474   1_655  S
Cr437       O440   1.769       .  S
Cr438       O440   1.770       .  S
Cr439       O440   1.764       .  S
O441       Cr459   1.958   1_655  S
O441        C449   1.257       .  A
O442       Cr459   1.996       .  S
O442        C443   1.260       .  A
C443        O444   1.273       .  A
C443        C537   1.496       .  S
O444       Cr460   2.034       .  S
O445       Cr460   2.004       .  S
O445        C446   1.264       .  A
C446        O447   1.265       .  A
C446        C774   1.494       .  S
O447       Cr461   2.010       .  S
O448       Cr461   1.968   1_655  S
O448        C449   1.262       .  A
C449        C541   1.443       .  S
O450       Cr459   2.009   1_655  S
O450        C458   1.260   1_655  A
O451       Cr459   1.970       .  S
O451        C452   1.260       .  A
C452        O453   1.263       .  A
C452        C758   1.461       .  S
O453       Cr460   1.998       .  S
O454       Cr460   2.027       .  S
O454        C455   1.270       .  A
C455        O456   1.261       .  A
C455        C814   1.489       .  S
O456       Cr461   1.973       .  S
O457       Cr461   1.997       .  S
O457        C458   1.265       .  A
C458        C549   1.483   1_455  S
Cr459       O462   1.779       .  S
Cr460       O462   1.767       .  S
Cr461       O462   1.768       .  S
O463       Cr481   2.002       .  S
O463        C471   1.268       .  A
O464       Cr481   1.925       .  S
O464        C465   1.250       .  A
C465        O466   1.284       .  A
C465        C546   1.482       .  S
O466       Cr482   2.071       .  S
O467       Cr482   1.996       .  S
O467        C468   1.260       .  A
C468        O469   1.264       .  A
C468        C706   1.497       .  S
O469       Cr483   2.028       .  S
O470       Cr483   1.946       .  S
O470        C471   1.251       .  A
C471        C542   1.434       .  S
O472       Cr481   1.967       .  S
O472        C480   1.254       .  A
O473       Cr481   2.003       .  S
O473        C474   1.263       .  A
C474        O475   1.256       .  A
C474        C738   1.479       .  S
O475       Cr482   1.976       .  S
O476       Cr482   2.074       .  S
O476        C477   1.284       .  A
C477        O478   1.254       .  A
C477        C702   1.493       .  S
O478       Cr483   1.925       .  S
O479       Cr483   2.027       .  S
O479        C480   1.268       .  A
C480        C533   1.461       .  S
Cr481       O484   1.776       .  S
Cr482       O484   1.767       .  S
Cr483       O484   1.765       .  S
O485       Cr503   1.990       .  S
O485        C493   1.270       .  A
O486       Cr503   1.943       .  S
O486        C487   1.251       .  A
C487        O488   1.277       .  A
C487        C614   1.480   1_545  S
O488       Cr504   2.057       .  S
O489       Cr504   1.992       .  S
O489        C490   1.261       .  A
C490        O491   1.266       .  A
C490        C538   1.494       .  S
O491       Cr505   2.029       .  S
O492       Cr505   1.946       .  S
O492        C493   1.251       .  A
C493        C529   1.437       .  S
O494       Cr503   1.983       .  S
O494        C502   1.257       .  A
O495       Cr503   2.007       .  S
O495        C496   1.265       .  A
C496        O497   1.256       .  A
C496        C674   1.470   1_545  S
O497       Cr504   1.964       .  S
O498       Cr504   2.056       .  S
O498        C499   1.278       .  A
C499        O500   1.254       .  A
C499        C534   1.478       .  S
O500       Cr505   1.930       .  S
O501       Cr505   2.026       .  S
O501        C502   1.267       .  A
C502        C698   1.475       .  S
Cr503       O506   1.776       .  S
Cr504       O506   1.772       .  S
Cr505       O506   1.766       .  S
O507       Cr525   1.987   1_554  S
O507        C515   1.266       .  A
O508       Cr525   1.927       .  S
O508        C509   1.251       .  A
C509        O510   1.283       .  A
C509        C690   1.486       .  S
O510       Cr526   2.066       .  S
O511       Cr526   1.986       .  S
O511        C512   1.253       .  A
C512        O513   1.261       .  A
C512        C566   1.491       .  S
O513       Cr527   2.018       .  S
O514       Cr527   1.942   1_554  S
O514        C515   1.255       .  A
C515        C530   1.429       .  S
O516       Cr525   1.974       .  S
O516        C524   1.253   1_556  A
O517       Cr525   1.976       .  S
O517        C518   1.258       .  A
C518        O519   1.256       .  A
C518        C654   1.474       .  S
O519       Cr526   1.982       .  S
O520       Cr526   2.080       .  S
O520        C521   1.289       .  A
C521        O522   1.256       .  A
C521        C562   1.496       .  S
O522       Cr527   1.929       .  S
O523       Cr527   2.017   1_554  S
O523        C524   1.264       .  A
C524        C621   1.462   1_545  S
Cr525       O528   1.781       .  S
Cr526       O528   1.770       .  S
Cr527       O528   1.772       .  S
C529        C530   1.333       .  D
C529        H531   1.087       .  S
C530        H532   1.089       .  S
C533        C534   1.351       .  D
C533        H535   1.087       .  S
C534        H536   1.086       .  S
C537        C538   1.357   1_455  D
C537        H539   1.086   1_455  S
C538        H540   1.087   1_655  S
C541        C542   1.336       .  D
C541        H543   1.089       .  S
C542        H544   1.086       .  S
C545        C546   1.359       .  D
C545        H547   1.087       .  S
C546        H548   1.086       .  S
C549        C550   1.362       .  D
C549        H551   1.087       .  S
C550        H552   1.086       .  S
C553        C554   1.337       .  D
C553        H555   1.088       .  S
C554        H556   1.088       .  S
C557        C558   1.343       .  D
C557        H559   1.087       .  S
C558        H560   1.087   1_455  S
C561        C562   1.364       .  D
C561        H563   1.086       .  S
C562        H564   1.086       .  S
C565        C566   1.348       .  D
C565        H567   1.086       .  S
C566        H568   1.087       .  S
C569        C570   1.346       .  D
C569        H571   1.086   1_655  S
C570        H572   1.087       .  S
C573        C574   1.339       .  D
C573        H575   1.087       .  S
C574        H576   1.089       .  S
C577        C578   1.356       .  D
C577        H579   1.086       .  S
C578        H580   1.087       .  S
C581        C582   1.361   1_556  D
C581        H583   1.087   1_556  S
C582        H584   1.085       .  S
C585        C586   1.335       .  D
C585        H587   1.087       .  S
C586        H588   1.088       .  S
C589        C590   1.350       .  D
C589        H591   1.087       .  S
C590        H592   1.086       .  S
C593        C594   1.360       .  D
C593        H595   1.085       .  S
C594        H596   1.087       .  S
C597        C598   1.353       .  D
C597        H599   1.086       .  S
C598        H600   1.087       .  S
C601        C602   1.352       .  D
C601        H603   1.087   1_556  S
C602        H604   1.086       .  S
C605        C606   1.335       .  D
C605        H607   1.087       .  S
C606        H608   1.089       .  S
C609        C610   1.337       .  D
C609        H611   1.089       .  S
C610        H612   1.087       .  S
C613        C614   1.353       .  D
C613        H615   1.087       .  S
C614        H616   1.086       .  S
C617        C618   1.345       .  D
C617        H619   1.087       .  S
C618        H620   1.086       .  S
C621        C622   1.352       .  D
C621        H623   1.087       .  S
C622        H624   1.086       .  S
C625        C626   1.354       .  D
C625        H627   1.088       .  S
C626        H628   1.085       .  S
C629        C630   1.355       .  D
C629        H631   1.085       .  S
C630        H632   1.089       .  S
C633        C634   1.353   1_565  D
C633        H635   1.088   1_565  S
C634        H636   1.086   1_545  S
C637        C638   1.344       .  D
C637        H639   1.087   1_556  S
C638        H640   1.087       .  S
C641        C642   1.359       .  D
C641        H643   1.086       .  S
C642        H644   1.086       .  S
C645        C646   1.332       .  D
C645        H647   1.089       .  S
C646        H648   1.087       .  S
C649        C650   1.350       .  D
C649        H651   1.087       .  S
C650        H652   1.086       .  S
C653        C654   1.343   1_565  D
C653        H655   1.087       .  S
C654        H656   1.087       .  S
C657        C658   1.361       .  D
C657        H659   1.086       .  S
C658        H660   1.087       .  S
C661        C662   1.357       .  D
C661        H663   1.087       .  S
C662        H664   1.086       .  S
C665        C666   1.358       .  D
C665        H667   1.086       .  S
C666        H668   1.087       .  S
C669        C670   1.355       .  D
C669        H671   1.087       .  S
C670        H672   1.086       .  S
C673        C674   1.343       .  D
C673        H675   1.087       .  S
C674        H676   1.087       .  S
C677        C678   1.358       .  D
C677        H679   1.086       .  S
C678        H680   1.086       .  S
C681        C682   1.334       .  D
C681        H683   1.089       .  S
C682        H684   1.087       .  S
C685        C686   1.353       .  D
C685        H687   1.087       .  S
C686        H688   1.086       .  S
C689        C690   1.355       .  D
C689        H691   1.087       .  S
C690        H692   1.086       .  S
C693        C694   1.343       .  D
C693        H695   1.086       .  S
C694        H696   1.087       .  S
C697        C698   1.361       .  D
C697        H699   1.086       .  S
C698        H700   1.087       .  S
C701        C702   1.360       .  D
C701        H703   1.086       .  S
C702        H704   1.086       .  S
C705        C706   1.359       .  D
C705        H707   1.085       .  S
C706        H708   1.087       .  S
C709        C710   1.360       .  D
C709        H711   1.087       .  S
C710        H712   1.086       .  S
C713        C714   1.343       .  D
C713        H715   1.087       .  S
C714        H716   1.087       .  S
C717        C718   1.359       .  D
C717        H719   1.086       .  S
C718        H720   1.087       .  S
C721        C722   1.335       .  D
C721        H723   1.088       .  S
C722        H724   1.088       .  S
C725        C726   1.362       .  D
C725        H727   1.087       .  S
C726        H728   1.086       .  S
C729        C730   1.351       .  D
C729        H731   1.086       .  S
C730        H732   1.087       .  S
C733        C734   1.351       .  D
C733        H735   1.086       .  S
C734        H736   1.087       .  S
C737        C738   1.343       .  D
C737        H739   1.087       .  S
C738        H740   1.087       .  S
C741        C742   1.353       .  D
C741        H743   1.086       .  S
C742        H744   1.087       .  S
C745        C746   1.357       .  D
C745        H747   1.086       .  S
C746        H748   1.087       .  S
C749        C750   1.359       .  D
C749        H751   1.087       .  S
C750        H752   1.085       .  S
C753        C754   1.355       .  D
C753        H755   1.086       .  S
C754        H756   1.088       .  S
C757        C758   1.334       .  D
C757        H759   1.087       .  S
C758        H760   1.087       .  S
C761        C762   1.357       .  D
C761        H763   1.085       .  S
C762        H764   1.087       .  S
C765        C766   1.336       .  D
C765        H767   1.089       .  S
C766        H768   1.087       .  S
C769        C770   1.364       .  D
C769        H771   1.085       .  S
C770        H772   1.087       .  S
C773        C774   1.350       .  D
C773        H775   1.086       .  S
C774        H776   1.088       .  S
C777        C778   1.350   1_655  D
C777        H779   1.086   1_655  S
C778        H780   1.087   1_455  S
C781        C782   1.345       .  D
C781        H783   1.087       .  S
C782        H784   1.086       .  S
C785        C786   1.356       .  D
C785        H787   1.086       .  S
C786        H788   1.086       .  S
C789        C790   1.358       .  D
C789        H791   1.086       .  S
C790        H792   1.087       .  S
C793        C794   1.351       .  D
C793        H795   1.087       .  S
C794        H796   1.086       .  S
C797        C798   1.351       .  D
C797        H799   1.087       .  S
C798        H800   1.087       .  S
C801        C802   1.345       .  D
C801        H803   1.087       .  S
C802        H804   1.087       .  S
C805        C806   1.356       .  D
C805        H807   1.088       .  S
C806        H808   1.085       .  S
C809        C810   1.336       .  D
C809        H811   1.089       .  S
C810        H812   1.087       .  S
C813        C814   1.354       .  D
C813        H815   1.088       .  S
C814        H816   1.085       .  S
