geometry optimzed in LAMMPS
_audit_creation_date              2020-11-30 
_audit_creation_method            'lammps2cif' 
_symmetry_space_group_name_H-M    'P1' 
_symmetry_Int_Tables_number       1 
_symmetry_cell_setting            triclinic 
loop_ 
_symmetry_equiv_pos_as_xyz 
  x,y,z 
_cell_length_a                    68.54600225 
_cell_length_b                    68.13696408597662 
_cell_length_c                    48.93404137038701 
_cell_angle_alpha                 90.11909935661751 
_cell_angle_beta                  89.92971362042381 
_cell_angle_gamma                 90.09134190533953 
loop_ 
_atom_site_label 
_atom_site_type_symbol 
_atom_site_fract_x 
_atom_site_fract_y 
_atom_site_fract_z 
_atom_site_charge 
C1          C  0.57630521  0.23602804  0.89381086     0.03300
C2          C  0.57982528  0.23847666  0.92192558    -0.12900
C3          C  0.56459900  0.23662072  0.94084500     0.00800
C4          C  0.54567600  0.23280260  0.93157464    -0.11400
C5          C  0.54180274  0.23041392  0.90363862     0.03300
C6          C  0.55720590  0.23189937  0.88468707    -0.10800
H7          H  0.59445007  0.24160122  0.92914144     0.08900
H8          H  0.53383598  0.23173911  0.94622852     0.06400
H9          H  0.55428333  0.23027942  0.86304683     0.06200
N10         N  0.65196916  0.20881026  0.78273124    -0.27100
N11         N  0.66342889  0.22209513  0.77138805    -0.35000
C12         C  0.67640744  0.21320128  0.75510371     0.01200
C13         C  0.67317710  0.19321636  0.75587142     0.07200
C14         C  0.65748614  0.19084607  0.77366944    -0.05900
H15         H  0.68852783  0.22062340  0.74538332     0.07900
H16         H  0.65176709  0.17711170  0.78134364     0.09100
Cu17       Cu  0.66525282  0.25090946  0.78385526     0.44200
Cu18       Cu  0.63206954  0.21728306  0.81316685     0.42000
Cu19       Cu  0.64449374  0.26593522  0.84615954     0.43900
N20         N  0.67430038  0.27581816  0.80411962    -0.34500
N21         N  0.66749433  0.28138073  0.82815173    -0.28800
C22         C  0.67811125  0.29688415  0.83702684    -0.04900
C23         C  0.69223737  0.30105542  0.81744547     0.07300
C24         C  0.68926556  0.28738838  0.79697538     0.01100
H25         H  0.67599902  0.30424758  0.85640724     0.08800
H26         H  0.69783388  0.28543720  0.77859802     0.07900
N27         N  0.62034013  0.24834326  0.85546159    -0.36000
N28         N  0.61540514  0.23166860  0.84319222    -0.28200
C29         C  0.59850328  0.22515654  0.85411499    -0.03400
C30         C  0.59271820  0.23812307  0.87437786     0.05200
C31         C  0.60694245  0.25253372  0.87471683     0.03300
H32         H  0.59137927  0.21155953  0.84850130     0.08400
H33         H  0.60755538  0.26516488  0.88812988     0.07200
C34         C  0.57744540  0.23643395  0.10464701     0.03300
C35         C  0.55822998  0.23307321  0.11403726    -0.12900
C36         C  0.54256496  0.23291666  0.09540633     0.00800
C37         C  0.54627535  0.23566460  0.06754361    -0.11400
C38         C  0.56520605  0.23897623  0.05796069     0.03300
C39         C  0.58075468  0.23943226  0.07653392    -0.10800
H40         H  0.55544752  0.23097157  0.13562940     0.08900
H41         H  0.53427421  0.23515200  0.05312232     0.06400
H42         H  0.59544843  0.24182966  0.06903338     0.06200
N43         N  0.65092263  0.20860635  0.21928493    -0.27100
N44         N  0.66222832  0.22204713  0.23065518    -0.35000
C45         C  0.67471547  0.21342620  0.24785799     0.01200
C46         C  0.67142375  0.19344661  0.24765086     0.07200
C47         C  0.65612547  0.19080763  0.22925345    -0.05900
H48         H  0.68670380  0.22097470  0.25771420     0.07900
H49         H  0.65056700  0.17694376  0.22174373     0.09100
Cu50       Cu  0.66508158  0.25051265  0.21712655     0.44200
Cu51       Cu  0.63176584  0.21645244  0.18744919     0.42000
Cu52       Cu  0.64594195  0.26412880  0.15366309     0.43900
N53         N  0.67454811  0.27517419  0.19667612    -0.34500
N54         N  0.66816666  0.28029871  0.17228901    -0.28800
C55         C  0.67841794  0.29611582  0.16372333    -0.04900
C56         C  0.69189258  0.30096078  0.18386394     0.07300
C57         C  0.68893342  0.28732649  0.20433850     0.01100
H58         H  0.67642195  0.30332686  0.14425663     0.08800
H59         H  0.69698815  0.28595407  0.22322918     0.07900
N60         N  0.62184551  0.24677372  0.14340688    -0.36000
N61         N  0.61612629  0.23046333  0.15588086    -0.28200
C62         C  0.59914527  0.22446108  0.14454399    -0.03400
C63         C  0.59416828  0.23739311  0.12381984     0.05200
C64         C  0.60894761  0.25121313  0.12367471     0.03300
H65         H  0.59124826  0.21138890  0.15048631     0.08400
H66         H  0.61010184  0.26382803  0.11037210     0.07200
C67         C  0.72852613  0.08001707  0.60820080     0.03300
C68         C  0.72547808  0.06075102  0.61790043    -0.12900
C69         C  0.72407573  0.04499817  0.59931842     0.00800
C70         C  0.72516401  0.04869156  0.57121047    -0.11400
C71         C  0.72809164  0.06769114  0.56135785     0.03300
C72         C  0.73000691  0.08331681  0.57985791    -0.10800
H73         H  0.72469064  0.05798252  0.63966643     0.08900
H74         H  0.72402891  0.03659748  0.55683963     0.06400
H75         H  0.73235116  0.09804365  0.57218717     0.06200
N76         N  0.70272461  0.15693409  0.71952859    -0.27100
N77         N  0.71608461  0.16830571  0.73087592    -0.35000
C78         C  0.70742804  0.18153503  0.74709047     0.01200
C79         C  0.68752638  0.17856885  0.74630959     0.07200
C80         C  0.68494982  0.16276592  0.72857138    -0.05900
H81         H  0.71497914  0.19363698  0.75679623     0.07900
H82         H  0.67121447  0.15718140  0.72092615     0.09100
Cu83       Cu  0.74477730  0.16973087  0.71865238     0.44200
Cu84       Cu  0.71077065  0.13668086  0.68902750     0.42000
Cu85       Cu  0.75943563  0.14794291  0.65671551     0.43900
N86         N  0.76961016  0.17832424  0.69821486    -0.34500
N87         N  0.77507117  0.17106952  0.67438052    -0.28800
C88         C  0.79057581  0.18147124  0.66523450    -0.04900
C89         C  0.79484659  0.19594208  0.68440270     0.07300
C90         C  0.78123851  0.19339276  0.70494144     0.01100
H91         H  0.79786498  0.17899575  0.64591919     0.08800
H92         H  0.77939334  0.20229896  0.72308108     0.07900
N93         N  0.74138447  0.12418005  0.64671741    -0.36000
N94         N  0.72459170  0.11964082  0.65869760    -0.28200
C95         C  0.71773661  0.10286539  0.64747758    -0.03400
C96         C  0.73062098  0.09675556  0.62734216     0.05200
C97         C  0.74532390  0.11066916  0.62737139     0.03300
H98         H  0.70406010  0.09596575  0.65295216     0.08400
H99         H  0.75805222  0.11091883  0.61427635     0.07200
C100        C  0.72676498  0.08165762  0.39749410     0.03300
C101        C  0.72827683  0.08442027  0.42595122    -0.12900
C102        C  0.72732545  0.06834560  0.44375796     0.00800
C103        C  0.72537441  0.04940842  0.43306499    -0.11400
C104        C  0.72392274  0.04627848  0.40481573     0.03300
C105        C  0.72445866  0.06247155  0.38696972    -0.10800
H106        H  0.72989640  0.09908477  0.43427433     0.08900
H107        H  0.72488269  0.03698094  0.44687129     0.06400
H108        H  0.72350558  0.06012605  0.36510958     0.06200
N109        N  0.70075890  0.15760763  0.28512888    -0.27100
N110        N  0.71418147  0.16898537  0.27396922    -0.35000
C111        C  0.70563768  0.18206335  0.25749969     0.01200
C112        C  0.68573429  0.17899080  0.25788204     0.07200
C113        C  0.68305040  0.16327664  0.27568751    -0.05900
H114        H  0.71325160  0.19409848  0.24777272     0.07900
H115        H  0.66926063  0.15762919  0.28305864     0.09100
Cu116      Cu  0.74281479  0.17035017  0.28647967     0.44200
Cu117      Cu  0.70869389  0.13765093  0.31597960     0.42000
Cu118      Cu  0.75640332  0.15050331  0.35012796     0.43900
N119        N  0.76809178  0.17844816  0.30622043    -0.34500
N120        N  0.77316419  0.17206970  0.33065004    -0.28800
C121        C  0.78921587  0.18205140  0.33885419    -0.04900
C122        C  0.79423255  0.19533541  0.31844970     0.07300
C123        C  0.78050608  0.19249984  0.29817861     0.01100
H124        H  0.79629517  0.18022803  0.35842628     0.08800
H125        H  0.77906798  0.20064500  0.27934254     0.11100
N126        N  0.73836669  0.12671832  0.36028575    -0.36000
N127        N  0.72216983  0.12140918  0.34736207    -0.28200
C128        C  0.71572874  0.10435039  0.35818450    -0.03400
C129        C  0.72820545  0.09887888  0.37910377     0.05200
C130        C  0.74224803  0.11346808  0.37991921     0.03300
H131        H  0.70268775  0.09670095  0.35169503     0.08400
H132        H  0.75469528  0.11416365  0.39346463     0.07200
C133        C  0.77730754  0.42845074  0.89663248     0.03300
C134        C  0.78112552  0.44731601  0.88618013    -0.12900
C135        C  0.78307346  0.46336459  0.90400182     0.00800
C136        C  0.78155902  0.46037414  0.93227229    -0.11400
C137        C  0.77805517  0.44163474  0.94290941     0.03300
C138        C  0.77551346  0.42575969  0.92501900    -0.10800
H139        H  0.78212142  0.44958136  0.86431020     0.08900
H140        H  0.78289868  0.47276258  0.94610161     0.06400
H141        H  0.77270719  0.41126310  0.93322237     0.06200
N142        N  0.80046808  0.35542433  0.78115609    -0.27100
N143        N  0.78710127  0.34386689  0.77023170    -0.35000
C144        C  0.79572362  0.33097008  0.75351834     0.01200
C145        C  0.81558094  0.33433390  0.75375373     0.07200
C146        C  0.81817528  0.35006314  0.77148620    -0.05900
H147        H  0.78829029  0.31863378  0.74421579     0.07900
H148        H  0.83192005  0.35569689  0.77903232     0.09100
Cu149      Cu  0.75890080  0.34127056  0.78430389     0.44200
Cu150      Cu  0.79300615  0.37453123  0.81274524     0.42000
Cu151      Cu  0.74627814  0.36048859  0.84866140     0.43900
N152        N  0.73427546  0.33241242  0.80510201    -0.34500
N153        N  0.72948641  0.33880167  0.82968584    -0.28800
C154        C  0.71343547  0.32897864  0.83820002    -0.04900
C155        C  0.70809273  0.31577814  0.81782601     0.07300
C156        C  0.72168149  0.31844291  0.79727712     0.01100
H157        H  0.70641158  0.33105183  0.85779732     0.08800
H158        H  0.72269370  0.31047917  0.77818642     0.07900
N159        N  0.76436061  0.38416761  0.85870713    -0.36000
N160        N  0.78022215  0.38971956  0.84519120    -0.28200
C161        C  0.78703368  0.40647296  0.85631416    -0.03400
C162        C  0.77514962  0.41152228  0.87804684     0.05200
C163        C  0.76102283  0.39704273  0.87906764     0.03300
H164        H  0.79993424  0.41418813  0.84942668     0.08400
H165        H  0.74892393  0.39615606  0.89323413     0.07200
C166        C  0.77323263  0.43132421  0.10722624     0.03300
C167        C  0.77199459  0.42757447  0.07896874    -0.12900
C168        C  0.77381665  0.44293354  0.06015048     0.00800
C169        C  0.77625343  0.46214037  0.06960404    -0.11400
C170        C  0.77710518  0.46624341  0.09762851     0.03300
C171        C  0.77587838  0.45075768  0.11653631    -0.10800
H172        H  0.77021961  0.41266682  0.07160252     0.08900
H173        H  0.77751598  0.47402549  0.05498280     0.06400
H174        H  0.77661860  0.45383820  0.13823878     0.06200
N175        N  0.79784413  0.35779466  0.22300779    -0.27100
N176        N  0.78404413  0.34675411  0.23391360    -0.35000
C177        C  0.79202789  0.33392106  0.25124198     0.01200
C178        C  0.81197360  0.33664217  0.25153269     0.07200
C179        C  0.81525672  0.35205120  0.23339204    -0.05900
H180        H  0.78407801  0.32195854  0.26061020     0.07900
H181        H  0.82927637  0.35719541  0.22615782     0.09100
Cu182      Cu  0.75610485  0.34423201  0.21903635     0.44200
Cu183      Cu  0.79084959  0.37703308  0.19088834     0.42000
Cu184      Cu  0.74347021  0.36331099  0.15552168     0.43900
N185        N  0.73209794  0.33434641  0.19782577    -0.34500
N186        N  0.72723532  0.34078230  0.17336733    -0.28800
C187        C  0.71181148  0.33023071  0.16426931    -0.04900
C188        C  0.70698815  0.31648053  0.18414740     0.07300
C189        C  0.72021137  0.31960571  0.20500381     0.01100
H190        H  0.70489680  0.33216708  0.14460317     0.08800
H191        H  0.72149645  0.31142703  0.22383334     0.07900
N192        N  0.76128204  0.38728188  0.14607442    -0.36000
N193        N  0.77743229  0.39276704  0.15898414    -0.28200
C194        C  0.78390423  0.40965708  0.14771516    -0.03400
C195        C  0.77144350  0.41480801  0.12662911     0.05200
C196        C  0.75741680  0.40025300  0.12613248     0.03300
H197        H  0.79701645  0.41731912  0.15389101     0.08400
H198        H  0.74512132  0.39924477  0.11235242     0.07200
N199        N  0.85104749  0.30411932  0.71776192    -0.27100
N200        N  0.83951051  0.29088038  0.72906356    -0.35000
C201        C  0.82667702  0.29979580  0.74547385     0.01200
C202        C  0.83000321  0.31973454  0.74465371     0.07200
C203        C  0.84569115  0.32208461  0.72691733    -0.05900
H204        H  0.81443105  0.29245015  0.75499803     0.07900
H205        H  0.85136580  0.33580119  0.71911664     0.09100
Cu206      Cu  0.83653827  0.26240623  0.71588904     0.44200
Cu207      Cu  0.87031140  0.29593487  0.68661421     0.42000
Cu208      Cu  0.85579182  0.24812034  0.65291369     0.43900
N209        N  0.82685426  0.23773685  0.69577481    -0.34500
N210        N  0.83340396  0.23221799  0.67160021    -0.28800
C211        C  0.82327768  0.21619976  0.66343065    -0.04900
C212        C  0.80970447  0.21166880  0.68360963     0.07300
C213        C  0.81244601  0.22570669  0.70366341     0.01100
H214        H  0.82548187  0.20858610  0.64425950     0.08800
H215        H  0.80435359  0.22732615  0.72252102     0.07900
N216        N  0.87982194  0.26552900  0.64252649    -0.36000
N217        N  0.88555485  0.28182029  0.65509835    -0.28200
C218        C  0.90243046  0.28794650  0.64373440    -0.03400
C219        C  0.90735126  0.27514353  0.62283499     0.05200
C220        C  0.89267146  0.26121792  0.62261018     0.03300
H221        H  0.91030908  0.30100468  0.64984019     0.08400
H222        H  0.89158722  0.24860657  0.60922306     0.07200
C223        C  0.92424014  0.27624282  0.60408086     0.03300
C224        C  0.94303973  0.28064578  0.61401679    -0.12900
C225        C  0.95895409  0.28144978  0.59594569     0.00800
C226        C  0.95597478  0.27809400  0.56800573    -0.11400
C227        C  0.93740617  0.27362500  0.55784827     0.03300
C228        C  0.92155973  0.27268480  0.57597121    -0.10800
H229        H  0.94531334  0.28321748  0.63563786     0.08900
H230        H  0.96823807  0.27899246  0.55403039     0.06400
H231        H  0.90713005  0.26943359  0.56812831     0.06200
N232        N  0.84760935  0.30527066  0.28625942    -0.27100
N233        N  0.83511871  0.29239529  0.27612044    -0.35000
C234        C  0.82171271  0.30172010  0.26116034     0.01200
C235        C  0.82573048  0.32155930  0.26144968     0.07200
C236        C  0.84236521  0.32340906  0.27758564    -0.05900
H237        H  0.80910719  0.29464243  0.25218287     0.07900
H238        H  0.84917112  0.33694343  0.28419015     0.09100
Cu239      Cu  0.83335534  0.26328058  0.28709379     0.44200
Cu240      Cu  0.86885377  0.29613768  0.31450358     0.42000
Cu241      Cu  0.85570201  0.24767589  0.34722599     0.43900
N242        N  0.82574130  0.23732711  0.30583372    -0.34500
N243        N  0.83312341  0.23158133  0.32937183    -0.28800
C244        C  0.82349285  0.21531125  0.33769830    -0.04900
C245        C  0.80941677  0.21077483  0.31823547     0.07300
C246        C  0.81139747  0.22506011  0.29839426     0.01100
H247        H  0.82623532  0.20764951  0.35664249     0.08800
H248        H  0.80250398  0.22696258  0.28035361     0.07900
N249        N  0.88024286  0.26472719  0.35623358    -0.36000
N250        N  0.88562828  0.28121762  0.34393062    -0.28200
C251        C  0.90290927  0.28705314  0.35447800    -0.03400
C252        C  0.90843242  0.27382709  0.37453026     0.05200
C253        C  0.89367171  0.26000303  0.37510941     0.03300
H254        H  0.91051921  0.30034063  0.34872796     0.08400
H255        H  0.89277249  0.24731961  0.38832147     0.07200
C256        C  0.92526979  0.27498321  0.39340981     0.03300
C257        C  0.94435393  0.27839480  0.38367592    -0.12900
C258        C  0.96014474  0.27868771  0.40203564     0.00800
C259        C  0.95665257  0.27646958  0.43008386    -0.11400
C260        C  0.93772660  0.27353233  0.44012396     0.03300
C261        C  0.92217184  0.27222274  0.42159289    -0.10800
H262        H  0.94696818  0.28022756  0.36199237     0.08900
H263        H  0.96880532  0.27712537  0.44423566     0.06400
H264        H  0.90760125  0.26924857  0.42912107     0.06200
N265        N  0.79891446  0.65874108  0.78208884    -0.27100
N266        N  0.78583497  0.67159490  0.77379150    -0.35000
C267        C  0.79442254  0.68522419  0.75824925     0.01200
C268        C  0.81401546  0.68093832  0.75623472     0.07200
C269        C  0.81648134  0.66391408  0.77155636    -0.05900
H270        H  0.78710862  0.69812214  0.75049537     0.07900
H271        H  0.83014822  0.65683354  0.77645054     0.09100
Cu272      Cu  0.75780316  0.67305958  0.78812429     0.44200
Cu273      Cu  0.79065474  0.63737727  0.81075405     0.42000
Cu274      Cu  0.74171880  0.64806661  0.84588364     0.43900
N275        N  0.73210813  0.67990249  0.80723075    -0.34500
N276        N  0.72572718  0.67137106  0.82969110    -0.28800
C277        C  0.70902986  0.68036269  0.83758792    -0.04900
C278        C  0.70498272  0.69516443  0.81886200     0.07300
C279        C  0.71998499  0.69432845  0.80008395     0.01100
H280        H  0.70057841  0.67649861  0.85547182     0.08800
H281        H  0.72227362  0.70379884  0.78266322     0.07900
N282        N  0.76032690  0.62437836  0.85355243    -0.36000
N283        N  0.77687328  0.62007888  0.84070362    -0.28200
C284        C  0.78402438  0.60324809  0.85115294    -0.03400
C285        C  0.77162821  0.59686585  0.87165180     0.05200
C286        C  0.75688752  0.61063758  0.87266891     0.03300
H287        H  0.79767585  0.59659247  0.84506101     0.08400
H288        H  0.74453814  0.61072266  0.88646209     0.07200
C289        C  0.77447432  0.58027041  0.89059252     0.03300
C290        C  0.77834502  0.56121445  0.88071228    -0.12900
C291        C  0.78063395  0.54559351  0.89917013     0.00800
C292        C  0.77967671  0.54925370  0.92732024    -0.11400
C293        C  0.77630351  0.56815742  0.93734438     0.03300
C294        C  0.77321910  0.58356495  0.91895132    -0.10800
H295        H  0.77913987  0.55849608  0.85891803     0.08900
H296        H  0.78150914  0.53724170  0.94160374     0.06400
H297        H  0.77045755  0.59820876  0.92672060     0.06200
N298        N  0.79843159  0.65656596  0.21836494    -0.27100
N299        N  0.78546764  0.66879555  0.22879926    -0.35000
C300        C  0.79451415  0.68172089  0.24510536     0.01200
C301        C  0.81424721  0.67768207  0.24519682     0.07200
C302        C  0.81628885  0.66152524  0.22800112    -0.05900
H303        H  0.78751394  0.69448100  0.25390839     0.07900
H304        H  0.82984988  0.65528817  0.22074965     0.09100
Cu305      Cu  0.75731652  0.67188788  0.21457489     0.44200
Cu306      Cu  0.79039824  0.63706819  0.18713315     0.42000
Cu307      Cu  0.74431750  0.65165580  0.15059916     0.43900
N308        N  0.73266939  0.68044413  0.19354570    -0.34500
N309        N  0.72780402  0.67370766  0.16916976    -0.28800
C310        C  0.71189532  0.68356095  0.16035585    -0.04900
C311        C  0.70668677  0.69712849  0.18031567     0.07300
C312        C  0.72021301  0.69463166  0.20095094     0.01100
H313        H  0.70487213  0.68124612  0.14082913     0.08800
H314        H  0.72133858  0.70292504  0.21975415     0.07900
N315        N  0.76228680  0.62802447  0.14016943    -0.36000
N316        N  0.77788391  0.62213110  0.15391778    -0.28200
C317        C  0.78463200  0.60547708  0.14237017    -0.03400
C318        C  0.77301552  0.60090525  0.12010266     0.05200
C319        C  0.75909659  0.61554499  0.11927099     0.03300
H320        H  0.79728228  0.59746703  0.14937541     0.08400
H321        H  0.74716524  0.61675255  0.10492047     0.07200
C322        C  0.77486641  0.58399851  0.10128053     0.03300
C323        C  0.77361873  0.58685321  0.07281359    -0.12900
C324        C  0.77554907  0.57087395  0.05486721     0.00800
C325        C  0.77813271  0.55202488  0.06544383    -0.11400
C326        C  0.77908637  0.54887882  0.09367128     0.03300
C327        C  0.77763604  0.56491417  0.11162655    -0.10800
H328        H  0.77162260  0.60148020  0.06463755     0.08900
H329        H  0.77926801  0.53964327  0.05155913     0.06400
H330        H  0.77826988  0.56249967  0.13348566     0.06200
N331        N  0.85058119  0.70872628  0.71787515    -0.27100
N332        N  0.83989440  0.72277085  0.72891748    -0.35000
C333        C  0.82648840  0.71483902  0.74545904     0.01200
C334        C  0.82868858  0.69471812  0.74526179     0.07200
C335        C  0.84420865  0.69123251  0.72755464    -0.05900
H336        H  0.81492290  0.72306829  0.75523171     0.07900
H337        H  0.84927605  0.67708879  0.72043220     0.09100
Cu338      Cu  0.83983222  0.75150725  0.71620979     0.44200
Cu339      Cu  0.87058219  0.71557145  0.68683261     0.42000
Cu340      Cu  0.85835902  0.76305605  0.65132059     0.43900
N341        N  0.83115601  0.77605008  0.69516205    -0.34500
N342        N  0.83683516  0.78015818  0.67003809    -0.28800
C343        C  0.82610357  0.79538163  0.66071516    -0.04900
C344        C  0.81309869  0.80088320  0.68117497     0.07300
C345        C  0.81686190  0.78831382  0.70261820     0.01100
H346        H  0.82721731  0.80150802  0.64039772     0.08800
H347        H  0.80906226  0.78736878  0.72179819     0.07900
N348        N  0.88199497  0.74475920  0.64207400    -0.36000
N349        N  0.88697067  0.72855583  0.65534998    -0.28200
C350        C  0.90374626  0.72161439  0.64457440    -0.03400
C351        C  0.90940828  0.73380838  0.62337305     0.05200
C352        C  0.89522445  0.74819032  0.62229547     0.03300
H353        H  0.91094945  0.70831415  0.65110367     0.08400
H354        H  0.89464052  0.76039932  0.60821916     0.07200
C355        C  0.92594947  0.73124541  0.60423759     0.03300
C356        C  0.94517283  0.72862807  0.61387294    -0.12900
C357        C  0.96070797  0.72662844  0.59522533     0.00800
C358        C  0.95682690  0.72676749  0.56711069    -0.11400
C359        C  0.93779427  0.72910932  0.55731677     0.03300
C360        C  0.92245555  0.73178363  0.57591114    -0.10800
H361        H  0.94807770  0.72864001  0.63562990     0.08900
H362        H  0.96877031  0.72529114  0.55269178     0.06400
H363        H  0.90774465  0.73379716  0.56833085     0.06200
N364        N  0.85103984  0.70764723  0.27962830    -0.27100
N365        N  0.84043966  0.72098162  0.26691262    -0.35000
C366        C  0.82713672  0.71203306  0.25119964     0.01200
C367        C  0.82923474  0.69199381  0.25382144     0.07200
C368        C  0.84461946  0.68962577  0.27204223    -0.05900
H369        H  0.81552068  0.71960068  0.24062760     0.07900
H370        H  0.84947781  0.67599429  0.28103839     0.09100
Cu371      Cu  0.83976505  0.75040243  0.27683025     0.44200
Cu372      Cu  0.87086510  0.71602275  0.31020810     0.42000
Cu373      Cu  0.85908389  0.76494525  0.34059870     0.43900
N374        N  0.83154756  0.77609403  0.29600824    -0.34500
N375        N  0.83784137  0.78134019  0.32044763    -0.28800
C376        C  0.82753135  0.79709080  0.32896666    -0.04900
C377        C  0.81405924  0.80177595  0.30884525     0.07300
C378        C  0.81715171  0.78817832  0.28827916     0.01100
H379        H  0.82909200  0.80400050  0.34876535     0.08800
H380        H  0.80877594  0.78641340  0.26971318     0.07900
N381        N  0.88198409  0.74683836  0.35294138    -0.36000
N382        N  0.88692194  0.72996412  0.34128414    -0.28200
C383        C  0.90329454  0.72324749  0.35335214    -0.03400
C384        C  0.90867058  0.73629926  0.37375184     0.05200
C385        C  0.89478587  0.75096440  0.37300711     0.03300
H386        H  0.91049812  0.70963522  0.34810574     0.08400
H387        H  0.89421572  0.76389994  0.38584380     0.07200
C388        C  0.92516605  0.73467052  0.39304160     0.03300
C389        C  0.92155358  0.73437431  0.42138177    -0.12900
C390        C  0.93706648  0.73258756  0.43991301     0.00800
C391        C  0.95619549  0.73165346  0.43004558    -0.11400
C392        C  0.96009642  0.73250111  0.40198626     0.03300
C393        C  0.94453086  0.73371198  0.38338461    -0.10800
H394        H  0.90670715  0.73508156  0.42895598     0.08900
H395        H  0.96820487  0.73059382  0.44438501     0.06400
H396        H  0.94748305  0.73433161  0.36164635     0.06200
N397        N  0.70460191  0.85335907  0.71779020    -0.27100
N398        N  0.71838619  0.84249836  0.72894755    -0.35000
C399        C  0.71030195  0.82974273  0.74641075     0.01200
C400        C  0.69037463  0.83255746  0.74658649     0.07200
C401        C  0.68716996  0.84773680  0.72819248    -0.05900
H402        H  0.71817532  0.81795577  0.75623356     0.07900
H403        H  0.67318639  0.85286673  0.72090847     0.09100
Cu404      Cu  0.74660964  0.84089354  0.71469376     0.44200
Cu405      Cu  0.71132174  0.87220588  0.68537740     0.42000
Cu406      Cu  0.75754459  0.85805826  0.64864364     0.43900
N407        N  0.77103745  0.83205135  0.69345997    -0.34500
N408        N  0.77502001  0.83740942  0.66815784    -0.28800
C409        C  0.79098433  0.82753802  0.65952355    -0.04900
C410        C  0.79714912  0.81542061  0.68061600     0.07300
C411        C  0.78412098  0.81875093  0.70168576     0.01100
H412        H  0.79739006  0.82884138  0.63939542     0.08800
H413        H  0.78373634  0.81158048  0.72137588     0.07900
N414        N  0.73992365  0.88207943  0.63944813    -0.36000
N415        N  0.72419671  0.88778044  0.65313906    -0.28200
C416        C  0.71797033  0.90497288  0.64268535    -0.03400
C417        C  0.73015228  0.91013312  0.62127715     0.05200
C418        C  0.74377973  0.89525196  0.61974799     0.03300
H419        H  0.70529271  0.91292847  0.64980032     0.08400
H420        H  0.75592639  0.89427970  0.60566880     0.07200
C421        C  0.72866863  0.92723878  0.60290775     0.03300
C422        C  0.73105106  0.92447635  0.57462420    -0.12900
C423        C  0.72977865  0.94039304  0.55668695     0.00800
C424        C  0.72674961  0.95926600  0.56715822    -0.11400
C425        C  0.72450257  0.96236057  0.59533354     0.03300
C426        C  0.72528343  0.94626701  0.61324867    -0.10800
H427        H  0.73357399  0.90989057  0.56648527     0.08900
H428        H  0.72605899  0.97163640  0.55327982     0.06400
H429        H  0.72370163  0.94859563  0.63504621     0.06200
N430        N  0.70273971  0.85283194  0.28183361    -0.27100
N431        N  0.71545356  0.84067323  0.27065788    -0.35000
C432        C  0.70600238  0.82749694  0.25525874     0.01200
C433        C  0.68625856  0.83134193  0.25644756     0.07200
C434        C  0.68460345  0.84760774  0.27352929    -0.05900
H435        H  0.71291501  0.81501565  0.24558621     0.07900
H436        H  0.67123507  0.85403388  0.28115365     0.09100
Cu437      Cu  0.74447136  0.83883404  0.28131923     0.44200
Cu438      Cu  0.71200089  0.87329451  0.31110002     0.42000
Cu439      Cu  0.76010001  0.86010651  0.34326774     0.43900
N440        N  0.77069156  0.83163698  0.29924985    -0.34500
N441        N  0.77643866  0.83859456  0.32312205    -0.28800
C442        C  0.79316774  0.82949004  0.33029195    -0.04900
C443        C  0.79801953  0.81622458  0.30977252     0.07300
C444        C  0.78342659  0.81808446  0.29049508     0.01100
H445        H  0.80097145  0.83204390  0.34916893     0.08800
H446        H  0.78171314  0.80965576  0.27189347     0.07900
N447        N  0.74266371  0.88413372  0.35395834    -0.36000
N448        N  0.72635458  0.88954130  0.34150233    -0.28200
C449        C  0.72010451  0.90653470  0.35264818    -0.03400
C450        C  0.73281369  0.91188117  0.37333287     0.05200
C451        C  0.74682903  0.89729166  0.37368118     0.03300
H452        H  0.70687941  0.91406893  0.34679460     0.08400
H453        H  0.75929079  0.89640213  0.38716998     0.07200
C454        C  0.73099617  0.92856849  0.39255952     0.03300
C455        C  0.72746604  0.94779178  0.38304830    -0.12900
C456        C  0.72602049  0.96346625  0.40173250     0.00800
C457        C  0.72758147  0.95972244  0.42975867    -0.11400
C458        C  0.73115822  0.94077283  0.43940117     0.03300
C459        C  0.73295892  0.92522519  0.42079807    -0.10800
H460        H  0.72631646  0.95059748  0.36132799     0.08900
H461        H  0.72634428  0.97175272  0.44421341     0.06400
H462        H  0.73564282  0.91052810  0.42832831     0.06200
C463        C  0.57596108  0.78073087  0.89210229     0.03300
C464        C  0.55695115  0.78447615  0.88243208    -0.12900
C465        C  0.54149593  0.78709118  0.90106407     0.00800
C466        C  0.54537228  0.78674032  0.92917514    -0.11400
C467        C  0.56424122  0.78338295  0.93895069     0.03300
C468        C  0.57940793  0.77990964  0.92039404    -0.10800
H469        H  0.55412486  0.78482689  0.86066271     0.08900
H470        H  0.53350955  0.78867835  0.94361888     0.06400
H471        H  0.59397734  0.77705421  0.92798490     0.06200
N472        N  0.65398063  0.80324601  0.78293885    -0.27100
N473        N  0.66540891  0.78961198  0.77239261    -0.35000
C474        C  0.67915178  0.79808314  0.75690771     0.01200
C475        C  0.67628087  0.81811393  0.75725508     0.07200
C476        C  0.66012522  0.82099377  0.77397983    -0.05900
H477        H  0.69115265  0.79029211  0.74747588     0.07900
H478        H  0.65427441  0.83491513  0.78076027     0.09100
Cu479      Cu  0.66493090  0.76063940  0.78398952     0.44200
Cu480      Cu  0.63301843  0.79555409  0.81215018     0.42000
Cu481      Cu  0.64306289  0.74706176  0.84652450     0.43900
N482        N  0.67192854  0.73523267  0.80425108    -0.34500
N483        N  0.66500434  0.73023653  0.82843770    -0.28800
C484        C  0.67506341  0.71447730  0.83755777    -0.04900
C485        C  0.68897904  0.70962376  0.81798313     0.07300
C486        C  0.68638091  0.72307078  0.79724610     0.01100
H487        H  0.67299292  0.70766273  0.85729603     0.08800
H488        H  0.69507126  0.72467422  0.77892501     0.07900
N489        N  0.61968145  0.76578407  0.85505017    -0.36000
N490        N  0.61553229  0.78235737  0.84211082    -0.28200
C491        C  0.59883973  0.78975327  0.85247001    -0.03400
C492        C  0.59236035  0.77746027  0.87304673     0.05200
C493        C  0.60597015  0.76253682  0.87421953     0.03300
H494        H  0.59235844  0.80350652  0.84628047     0.08400
H495        H  0.60594718  0.75020813  0.88812081     0.07200
N496        N  0.64966837  0.80297942  0.21936437    -0.27100
N497        N  0.66079736  0.78918856  0.23003288    -0.35000
C498        C  0.67385275  0.79734767  0.24688778     0.01200
C499        C  0.67114257  0.81739615  0.24712037     0.07200
C500        C  0.65554305  0.82056621  0.22944625    -0.05900
H501        H  0.68591721  0.78945024  0.25589619     0.07900
H502        H  0.65035230  0.83461511  0.22223179     0.09100
Cu503      Cu  0.66300382  0.76107025  0.21513905     0.44200
Cu504      Cu  0.63031836  0.79573473  0.18759268     0.42000
Cu505      Cu  0.64511131  0.74908309  0.15044925     0.43900
N506        N  0.67292935  0.73706609  0.19376686    -0.34500
N507        N  0.66713972  0.73250219  0.16884922    -0.28800
C508        C  0.67785776  0.71711133  0.15985234    -0.04900
C509        C  0.69101647  0.71202716  0.18029307     0.07300
C510        C  0.68735863  0.72503812  0.20135157     0.01100
H511        H  0.67649719  0.71045334  0.13985730     0.08800
H512        H  0.69503978  0.72616314  0.22058488     0.07900
N513        N  0.62091629  0.76667962  0.14141677    -0.36000
N514        N  0.61500472  0.78240826  0.15517848    -0.28200
C515        C  0.59806056  0.78871351  0.14422037    -0.03400
C516        C  0.59329655  0.77664897  0.12237947     0.05200
C517        C  0.60815482  0.76298330  0.12116013     0.03300
H518        H  0.59010421  0.80150267  0.15110907     0.08400
H519        H  0.60948470  0.75101936  0.10670664     0.07200
C520        C  0.57679196  0.77855286  0.10306635     0.03300
C521        C  0.58043831  0.77784304  0.07474763    -0.12900
C522        C  0.56508084  0.77979089  0.05606915     0.00800
C523        C  0.54597508  0.78177610  0.06569529    -0.11400
C524        C  0.54196649  0.78204631  0.09374223     0.03300
C525        C  0.55744679  0.78075158  0.11252987    -0.10800
H526        H  0.59524459  0.77633068  0.06724681     0.08900
H527        H  0.53407642  0.78298734  0.05119902     0.06400
H528        H  0.55441804  0.78094495  0.13426142     0.06200
C529        C  0.22939641  0.58253288  0.89360002     0.03300
C530        C  0.22689097  0.56325832  0.88357639    -0.12900
C531        C  0.22617556  0.54734494  0.90187790     0.00800
C532        C  0.22745564  0.55089803  0.93003602    -0.11400
C533        C  0.22966244  0.56994527  0.94015497     0.03300
C534        C  0.23091717  0.58571603  0.92193799    -0.10800
H535        H  0.22587281  0.56063952  0.86178242     0.08900
H536        H  0.22671578  0.53871224  0.94423718     0.06400
H537        H  0.23270862  0.60047911  0.92984940     0.06200
N538        N  0.20361972  0.65856395  0.78163219    -0.27100
N539        N  0.21724837  0.66969391  0.77045194    -0.35000
C540        C  0.20894410  0.68275391  0.75371752     0.01200
C541        C  0.18902166  0.67990060  0.75394685     0.07200
C542        C  0.18604243  0.66436257  0.77192362    -0.05900
H543        H  0.21673480  0.69463980  0.74391122     0.07900
H544        H  0.17214474  0.65894264  0.77923223     0.09100
Cu545      Cu  0.24590281  0.67087547  0.78300583     0.44200
Cu546      Cu  0.21095731  0.63867627  0.81274802     0.42000
Cu547      Cu  0.25916208  0.65083480  0.84604076     0.43900
N548        N  0.27123857  0.67884824  0.80278239    -0.34500
N549        N  0.27612900  0.67234034  0.82720060    -0.28800
C550        C  0.29213526  0.68219910  0.83579012    -0.04900
C551        C  0.29737207  0.69553865  0.81560714     0.07300
C552        C  0.28378861  0.69287189  0.79506247     0.01100
H553        H  0.29905148  0.68022244  0.85544666     0.08800
H554        H  0.28250053  0.70115478  0.77632296     0.07900
N555        N  0.24111123  0.62718469  0.85598477    -0.36000
N556        N  0.22460398  0.62218823  0.84361740    -0.28200
C557        C  0.21810709  0.60519925  0.85455304    -0.03400
C558        C  0.23095155  0.59945725  0.87486151     0.05200
C559        C  0.24521546  0.61378813  0.87527637     0.03300
H560        H  0.20477289  0.59782970  0.84863227     0.08400
H561        H  0.25787118  0.61430329  0.88845375     0.07200
C562        C  0.22863497  0.58235111  0.10403284     0.03300
C563        C  0.22652691  0.56304609  0.11397720    -0.12900
C564        C  0.22606927  0.54713779  0.09559516     0.00800
C565        C  0.22717420  0.55068385  0.06745201    -0.11400
C566        C  0.22923393  0.56975868  0.05742793     0.03300
C567        C  0.23012605  0.58555643  0.07571245    -0.10800
H568        H  0.22583577  0.56038290  0.13577585     0.08900
H569        H  0.22681252  0.53845087  0.05323482     0.06400
H570        H  0.23183489  0.60033032  0.06788360     0.06200
N571        N  0.20068331  0.65942408  0.21379467    -0.27100
N572        N  0.21378162  0.67148441  0.22433054    -0.35000
C573        C  0.20487777  0.68480083  0.24011001     0.01200
C574        C  0.18509270  0.68114682  0.23990369     0.07200
C575        C  0.18282347  0.66485782  0.22297326    -0.05900
H576        H  0.21216209  0.69725472  0.24933937     0.07900
H577        H  0.16919828  0.65855491  0.21605098     0.09100
Cu578      Cu  0.24246945  0.67311883  0.21225980     0.44200
Cu579      Cu  0.20912018  0.63874522  0.18418337     0.42000
Cu580      Cu  0.25712805  0.65152228  0.15061534     0.43900
N581        N  0.26804764  0.68073307  0.19299612    -0.34500
N582        N  0.27348963  0.67358786  0.16910550    -0.28800
C583        C  0.28981824  0.68303719  0.16090291    -0.04900
C584        C  0.29468599  0.69674376  0.18081430     0.07300
C585        C  0.28054998  0.69477995  0.20076865     0.01100
H586        H  0.29733007  0.68038288  0.14180143     0.08800
H587        H  0.27897289  0.70342156  0.21920230     0.07900
N588        N  0.23969247  0.62733311  0.14133976    -0.36000
N589        N  0.22334241  0.62208050  0.15392867    -0.28200
C590        C  0.21718777  0.60486335  0.14325419    -0.03400
C591        C  0.23006999  0.59926403  0.12285284     0.05200
C592        C  0.24402312  0.61388515  0.12214199     0.03300
H593        H  0.20397329  0.59731594  0.14926894     0.08400
H594        H  0.25655989  0.61462895  0.10872186     0.07200
C595        C  0.07794769  0.73480400  0.60485013     0.03300
C596        C  0.08133808  0.73634868  0.57656254    -0.12900
C597        C  0.06601753  0.73368865  0.55798988     0.00800
C598        C  0.04711523  0.73035348  0.56774421    -0.11400
C599        C  0.04330740  0.72936768  0.59581339     0.03300
C600        C  0.05883706  0.73123674  0.61445908    -0.10800
H601        H  0.09596118  0.73903869  0.56897704     0.08900
H602        H  0.03519622  0.72880928  0.55332849     0.06400
H603        H  0.05599107  0.73048742  0.63621326     0.06200
N604        N  0.15378330  0.70965565  0.71634906    -0.27100
N605        N  0.16502339  0.72311933  0.72775887    -0.35000
C606        C  0.17799598  0.71443952  0.74419734     0.01200
C607        C  0.17490188  0.69442845  0.74356254     0.07200
C608        C  0.15936906  0.69180365  0.72561654    -0.05900
H609        H  0.18986815  0.72204865  0.75423675     0.07900
H610        H  0.15372769  0.67796887  0.71812416     0.09100
Cu611      Cu  0.16588096  0.75211879  0.71608843     0.44200
Cu612      Cu  0.13392149  0.71770193  0.68574103     0.42000
Cu613      Cu  0.14490409  0.76678378  0.65359471     0.43900
N614        N  0.17329790  0.77796859  0.69700706    -0.34500
N615        N  0.16662014  0.78332746  0.67286229    -0.28800
C616        C  0.17651240  0.79946699  0.66464563    -0.04900
C617        C  0.18997779  0.80430204  0.68480655     0.07300
C618        C  0.18738377  0.79036539  0.70493360     0.01100
H619        H  0.17447022  0.80674516  0.64523672     0.08800
H620        H  0.19583602  0.78865428  0.72342339     0.07900
N621        N  0.12163806  0.74826986  0.64326588    -0.36000
N622        N  0.11715986  0.73142415  0.65534040    -0.28200
C623        C  0.10055333  0.72438414  0.64418735    -0.03400
C624        C  0.09447100  0.73720003  0.62400078     0.05200
C625        C  0.10824350  0.75204978  0.62388399     0.03300
H626        H  0.09375302  0.71062151  0.64975127     0.08400
H627        H  0.10844756  0.76478788  0.61072032     0.07200
C628        C  0.07752891  0.73725172  0.39427940     0.03300
C629        C  0.05829252  0.73527281  0.38442556    -0.12900
C630        C  0.04252107  0.73524049  0.40284815     0.00800
C631        C  0.04611206  0.73655288  0.43096334    -0.11400
C632        C  0.06515358  0.73813338  0.44093053     0.03300
C633        C  0.08080567  0.73885171  0.42256553    -0.10800
H634        H  0.05560012  0.73412654  0.36266953     0.08900
H635        H  0.03399748  0.73600514  0.44522921     0.06400
H636        H  0.09556725  0.73996552  0.43034312     0.06200
N637        N  0.14995524  0.71009316  0.27863465    -0.27100
N638        N  0.16053313  0.72378331  0.26654246    -0.35000
C639        C  0.17299640  0.71534454  0.24903963     0.01200
C640        C  0.17038982  0.69526551  0.24985156     0.07200
C641        C  0.15557482  0.69235797  0.26889030    -0.05900
H642        H  0.18459941  0.72313029  0.23865452     0.07900
H643        H  0.15073484  0.67843179  0.27705745     0.09100
Cu644      Cu  0.16268563  0.75247733  0.27965642     0.44200
Cu645      Cu  0.13140215  0.71741549  0.31120288     0.42000
Cu646      Cu  0.14602631  0.76447642  0.34550892     0.43900
N647        N  0.17215484  0.77713574  0.30028215    -0.34500
N648        N  0.16687689  0.78144474  0.32553276    -0.28800
C649        C  0.17727743  0.79713574  0.33414173    -0.04900
C650        C  0.18969664  0.80278465  0.31312727     0.07300
C651        C  0.18596416  0.78976679  0.29206579     0.01100
H652        H  0.17623993  0.80358827  0.35430546     0.08800
H653        H  0.19331010  0.78896696  0.27252185     0.07900
N654        N  0.12214366  0.74714551  0.35614785    -0.36000
N655        N  0.11619194  0.73105346  0.34330664    -0.28200
C656        C  0.09913521  0.72518437  0.35447631    -0.03400
C657        C  0.09436189  0.73801438  0.37544276     0.05200
C658        C  0.10931874  0.75159685  0.37600315     0.03300
H659        H  0.09099460  0.71235131  0.34812927     0.08400
H660        H  0.11055991  0.76413578  0.38949895     0.07200
C661        C  0.42449188  0.78181475  0.89307047     0.03300
C662        C  0.44357998  0.78518031  0.88334276    -0.12900
C663        C  0.45903507  0.78769596  0.90191691     0.00800
C664        C  0.45521484  0.78700452  0.93005246    -0.11400
C665        C  0.43630987  0.78366341  0.93989422     0.03300
C666        C  0.42100752  0.78103553  0.92133261    -0.10800
H667        H  0.44642512  0.78556425  0.86156699     0.08900
H668        H  0.46711870  0.78883246  0.94442460     0.06400
H669        H  0.40628385  0.77892809  0.92886914     0.06200
N670        N  0.34997924  0.80445366  0.78006148    -0.27100
N671        N  0.33833523  0.79089737  0.76974821    -0.35000
C672        C  0.32497233  0.79941849  0.75379356     0.01200
C673        C  0.32826180  0.81939839  0.75370373     0.07200
C674        C  0.34433540  0.82218392  0.77055175    -0.05900
H675        H  0.31266824  0.79179032  0.74486499     0.07900
H676        H  0.35018525  0.83608252  0.77748095     0.09100
Cu677      Cu  0.33728007  0.76231645  0.78306943     0.44200
Cu678      Cu  0.36980849  0.79698183  0.81060427     0.42000
Cu679      Cu  0.35679044  0.74963898  0.84699328     0.43900
N680        N  0.32937679  0.73708230  0.80323592    -0.34500
N681        N  0.33552195  0.73237092  0.82790836    -0.28800
C682        C  0.32560790  0.71629079  0.83635836    -0.04900
C683        C  0.31264629  0.71087195  0.81580170     0.07300
C684        C  0.31558730  0.72439487  0.79522944     0.01100
H685        H  0.32728317  0.70944847  0.85614239     0.08800
H686        H  0.30765428  0.72555419  0.77621232     0.07900
N687        N  0.38047916  0.76803185  0.85586402    -0.36000
N688        N  0.38568560  0.78401002  0.84217858    -0.28200
C689        C  0.40251101  0.79096129  0.85267611    -0.03400
C690        C  0.40799689  0.77902247  0.87411783     0.05200
C691        C  0.39365655  0.76477351  0.87568909     0.03300
H692        H  0.40985044  0.80412222  0.84578666     0.08400
H693        H  0.39294435  0.75277016  0.89010060     0.07200
C694        C  0.42431670  0.77853209  0.10380271     0.03300
C695        C  0.44369597  0.77997188  0.11332952    -0.12900
C696        C  0.45918267  0.78178437  0.09456395     0.00800
C697        C  0.45511327  0.78294462  0.06660696    -0.11400
C698        C  0.43592251  0.78192746  0.05702196     0.03300
C699        C  0.42059365  0.77920940  0.07557008    -0.10800
H700        H  0.44673553  0.77913701  0.13501522     0.08900
H701        H  0.46701214  0.78450829  0.05213039     0.06400
H702        H  0.40574543  0.77821185  0.06809101     0.06200
N703        N  0.34822143  0.80454681  0.21460368    -0.27100
N704        N  0.33671799  0.79119771  0.22570073    -0.35000
C705        C  0.32324440  0.80003668  0.24125943     0.01200
C706        C  0.32634014  0.82003236  0.24039002     0.07200
C707        C  0.34236093  0.82248726  0.22324718    -0.05900
H708        H  0.31112643  0.79252719  0.25085598     0.07900
H709        H  0.34819850  0.83624451  0.21583343     0.09100
Cu710      Cu  0.33621394  0.76218695  0.21418715     0.44200
Cu711      Cu  0.36861241  0.79621340  0.18480534     0.42000
Cu712      Cu  0.35561860  0.74870038  0.14990458     0.43900
N713        N  0.32793294  0.73708922  0.19394478    -0.34500
N714        N  0.33398005  0.73223184  0.16922344    -0.28800
C715        C  0.32360621  0.71651933  0.16057439    -0.04900
C716        C  0.31042517  0.71151070  0.18100983     0.07300
C717        C  0.31370393  0.72485373  0.20176107     0.01100
H718        H  0.32508311  0.70971793  0.14068779     0.08800
H719        H  0.30569401  0.72624855  0.22072057     0.07900
N720        N  0.37982809  0.76619597  0.14093743    -0.36000
N721        N  0.38512286  0.78234907  0.15420500    -0.28200
C722        C  0.40223416  0.78873310  0.14382501    -0.03400
C723        C  0.40778784  0.77621413  0.12291566     0.05200
C724        C  0.39318300  0.76224265  0.12152380     0.03300
H725        H  0.40968580  0.80195254  0.15028981     0.08400
H726        H  0.39234129  0.75002688  0.10740797     0.07200
N727        N  0.29901583  0.85608995  0.71838759    -0.27100
N728        N  0.28549984  0.84479016  0.72949724    -0.35000
C729        C  0.29402864  0.83119488  0.74513640     0.01200
C730        C  0.31395029  0.83394545  0.74418746     0.07200
C731        C  0.31671859  0.84994858  0.72705955    -0.05900
H732        H  0.28634956  0.81912387  0.75467285     0.07900
H733        H  0.33050632  0.85546770  0.71948959     0.09100
Cu734      Cu  0.25666563  0.84414649  0.71781249     0.44200
Cu735      Cu  0.29160317  0.87627519  0.68802161     0.42000
Cu736      Cu  0.24524531  0.86186442  0.65246137     0.43900
N737        N  0.23157434  0.83607493  0.69757099    -0.34500
N738        N  0.22747702  0.84158991  0.67239236    -0.28800
C739        C  0.21145705  0.83176568  0.66383879    -0.04900
C740        C  0.20539572  0.81946009  0.68481041     0.07300
C741        C  0.21849844  0.82269698  0.70579608     0.01100
H742        H  0.20515097  0.83297004  0.64366150     0.08800
H743        H  0.21911379  0.81518450  0.72522462     0.07900
N744        N  0.26290830  0.88572279  0.64235490    -0.36000
N745        N  0.27857511  0.89170604  0.65592052    -0.28200
C746        C  0.28480392  0.90876954  0.64500098    -0.03400
C747        C  0.27272181  0.91350367  0.62334221     0.05200
C748        C  0.25912473  0.89854051  0.62220525     0.03300
H749        H  0.29744220  0.91689526  0.65192488     0.08400
H750        H  0.24701868  0.89730440  0.60813512     0.07200
C751        C  0.27414112  0.93045167  0.60467289     0.03300
C752        C  0.27704242  0.94960225  0.61487105    -0.12900
C753        C  0.27790766  0.96555869  0.59676858     0.00800
C754        C  0.27617699  0.96225396  0.56862261    -0.11400
C755        C  0.27295500  0.94338701  0.55827349     0.03300
C756        C  0.27197514  0.92749106  0.57635306    -0.10800
H757        H  0.27819154  0.95211738  0.63667956     0.08900
H758        H  0.27709468  0.97456506  0.55466027     0.06400
H759        H  0.26962251  0.91283263  0.56835607     0.06200
N760        N  0.29761053  0.85593203  0.27830024    -0.27100
N761        N  0.28393290  0.84522618  0.26643198    -0.35000
C762        C  0.29225330  0.83223923  0.24946540     0.01200
C763        C  0.31222332  0.83474649  0.25029904     0.07200
C764        C  0.31519858  0.84995753  0.26883548    -0.05900
H765        H  0.28443320  0.82052656  0.23926441     0.07900
H766        H  0.32907293  0.85491459  0.27681382     0.09100
Cu767      Cu  0.25524786  0.84410944  0.27895916     0.44200
Cu768      Cu  0.29057141  0.87522368  0.31034916     0.42000
Cu769      Cu  0.24372476  0.86174367  0.34480089     0.43900
N770        N  0.23058277  0.83537424  0.29977234    -0.34500
N771        N  0.22650194  0.84086688  0.32502093    -0.28800
C772        C  0.21084335  0.83060044  0.33385345    -0.04900
C773        C  0.20497778  0.81806812  0.31298465     0.07300
C774        C  0.21782615  0.82159665  0.29177511     0.01100
H775        H  0.20457822  0.83176914  0.35408883     0.08800
H776        H  0.21847415  0.81406455  0.27231791     0.07900
N777        N  0.26143980  0.88549683  0.35539653    -0.36000
N778        N  0.27754407  0.89104781  0.34247125    -0.28200
C779        C  0.28392199  0.90800653  0.35370722    -0.03400
C780        C  0.27142484  0.91313925  0.37483523     0.05200
C781        C  0.25747509  0.89848997  0.37536778     0.03300
H782        H  0.29690753  0.91580775  0.34734773     0.08400
H783        H  0.24506642  0.89754675  0.38899215     0.07200
C784        C  0.27285527  0.92999722  0.39383549     0.03300
C785        C  0.27164018  0.92668482  0.42218212    -0.12900
C786        C  0.27267890  0.94242261  0.44065631     0.00800
C787        C  0.27425019  0.96157042  0.43059364    -0.11400
C788        C  0.27498545  0.96522464  0.40246937     0.03300
C789        C  0.27459490  0.94937311  0.38400185    -0.10800
H790        H  0.26986761  0.91187821  0.42983417     0.08900
H791        H  0.27466366  0.97380706  0.44480354     0.06400
H792        H  0.27508261  0.95212636  0.36221459     0.06200
C793        C  0.42447986  0.23230291  0.89381319     0.03300
C794        C  0.44367094  0.22912763  0.88433065    -0.12900
C795        C  0.45926528  0.22844434  0.90300413     0.00800
C796        C  0.45546394  0.23028657  0.93102039    -0.11400
C797        C  0.43648035  0.23323217  0.94068222     0.03300
C798        C  0.42106349  0.23453978  0.92200577    -0.10800
H799        H  0.44652691  0.22786193  0.86261997     0.08900
H800        H  0.46746293  0.22975496  0.94543496     0.06400
H801        H  0.40641059  0.23726340  0.92942415     0.06200
N802        N  0.35162575  0.20838097  0.77765554    -0.27100
N803        N  0.34148765  0.22245137  0.76582761    -0.35000
C804        C  0.32849051  0.21455064  0.74864850     0.01200
C805        C  0.33027902  0.19440815  0.74939043     0.07200
C806        C  0.34519509  0.19088200  0.76801541    -0.05900
H807        H  0.31711878  0.22280324  0.73855896     0.07900
H808        H  0.34956687  0.17676560  0.77600002     0.09100
Cu809      Cu  0.34053825  0.25098923  0.77929367     0.44200
Cu810      Cu  0.37055027  0.21531009  0.80991117     0.42000
Cu811      Cu  0.35760904  0.26318475  0.84466485     0.43900
N812        N  0.33129430  0.27564758  0.79974484    -0.34500
N813        N  0.33680893  0.28030413  0.82475736    -0.28800
C814        C  0.32654566  0.29617834  0.83303911    -0.04900
C815        C  0.31393758  0.30145915  0.81207156     0.07300
C816        C  0.31742929  0.28808300  0.79142390     0.01100
H817        H  0.32773020  0.30294819  0.85298413     0.08800
H818        H  0.30996629  0.28697520  0.77201842     0.07900
N819        N  0.38082417  0.24478992  0.85498989    -0.36000
N820        N  0.38612701  0.22852141  0.84201038    -0.28200
C821        C  0.40277248  0.22179459  0.85332837    -0.03400
C822        C  0.40795842  0.23418286  0.87459622     0.05200
C823        C  0.39367386  0.24846677  0.87511346     0.03300
H824        H  0.41027967  0.20859534  0.84697798     0.08400
H825        H  0.39286307  0.26088847  0.88887748     0.07200
C826        C  0.42523281  0.23403700  0.10483288     0.03300
C827        C  0.42170461  0.23646934  0.07669783    -0.12900
C828        C  0.43710174  0.23567579  0.05786752     0.00800
C829        C  0.45610581  0.23249313  0.06722933    -0.11400
C830        C  0.45999716  0.23025378  0.09514507     0.03300
C831        C  0.44448817  0.23091137  0.11402672    -0.10800
H832        H  0.40697481  0.23887096  0.06941600     0.08900
H833        H  0.46802576  0.23191795  0.05264728     0.06400
H834        H  0.44742560  0.22938064  0.13566392     0.06200
N835        N  0.35063568  0.20745423  0.21874548    -0.27100
N836        N  0.33973451  0.22124388  0.23002009    -0.35000
C837        C  0.32650428  0.21301496  0.24653413     0.01200
C838        C  0.32882069  0.19292475  0.24594135     0.07200
C839        C  0.34439539  0.18978774  0.22810003    -0.05900
H840        H  0.31468678  0.22100012  0.25610407     0.07900
H841        H  0.34945439  0.17577233  0.22048430     0.09100
Cu842      Cu  0.33813443  0.24983377  0.21686137     0.44200
Cu843      Cu  0.37057674  0.21499095  0.18764918     0.42000
Cu844      Cu  0.35725061  0.26283623  0.15342500     0.43900
N845        N  0.32894272  0.27448892  0.19638017    -0.34500
N846        N  0.33532917  0.27935518  0.17187401    -0.28800
C847        C  0.32505743  0.29498582  0.16293672    -0.04900
C848        C  0.31152674  0.29995392  0.18294679     0.07300
C849        C  0.31449418  0.28662013  0.20376641     0.01100
H850        H  0.32691541  0.30182847  0.14317621     0.08800
H851        H  0.30626701  0.28529732  0.22255044     0.07900
N852        N  0.38115949  0.24524065  0.14370413    -0.36000
N853        N  0.38663237  0.22894455  0.15636718    -0.28200
C854        C  0.40355595  0.22272008  0.14512052    -0.03400
C855        C  0.40871156  0.23547833  0.12425582     0.05200
C856        C  0.39413833  0.24944490  0.12393781     0.03300
H857        H  0.41121518  0.20954470  0.15109340     0.08400
H858        H  0.39311540  0.26193340  0.11039317     0.07200
C859        C  0.26992619  0.08288951  0.60452600     0.03300
C860        C  0.27348608  0.06386977  0.61453410    -0.12900
C861        C  0.27409358  0.04788732  0.59637048     0.00800
C862        C  0.27180889  0.05111775  0.56826701    -0.11400
C863        C  0.26863866  0.07003454  0.55811664     0.03300
C864        C  0.26725435  0.08580087  0.57637122    -0.10800
H865        H  0.27528008  0.06145797  0.63626389     0.08900
H866        H  0.27252637  0.03881298  0.55420414     0.06400
H867        H  0.26437650  0.10039546  0.56860480     0.06200
N868        N  0.29885407  0.15981972  0.71306229    -0.27100
N869        N  0.28615011  0.17246789  0.72313492    -0.35000
C870        C  0.29543380  0.18543368  0.73906744     0.01200
C871        C  0.31504155  0.18090177  0.73938124     0.07200
C872        C  0.31680240  0.16447850  0.72264750    -0.05900
H873        H  0.28860096  0.19822113  0.74804938     0.07900
H874        H  0.33021637  0.15756524  0.71608813     0.09100
Cu875      Cu  0.25764429  0.17503127  0.71041972     0.44200
Cu876      Cu  0.29003110  0.13944835  0.68351247     0.42000
Cu877      Cu  0.24180539  0.15224091  0.65024239     0.43900
N878        N  0.23184264  0.18242849  0.69157070    -0.34500
N879        N  0.22589307  0.17473630  0.66826289    -0.28800
C880        C  0.20933579  0.18387705  0.66043535    -0.04900
C881        C  0.20482896  0.19794743  0.68000997     0.07300
C882        C  0.21943239  0.19652371  0.69934482     0.01100
H883        H  0.20134108  0.18066071  0.64191114     0.08800
H884        H  0.22129944  0.20546790  0.71744075     0.07900
N885        N  0.25912106  0.12801115  0.64130301    -0.36000
N886        N  0.27556388  0.12287801  0.65364506    -0.28200
C887        C  0.28164208  0.10563039  0.64311262    -0.03400
C888        C  0.26857787  0.09986030  0.62311214     0.05200
C889        C  0.25461456  0.11440863  0.62243229     0.03300
H890        H  0.29491333  0.09817712  0.64896447     0.08400
H891        H  0.24197315  0.11502052  0.60924133     0.07200
C892        C  0.26909377  0.08313375  0.39435046     0.03300
C893        C  0.27234308  0.06397299  0.38434895    -0.12900
C894        C  0.27303505  0.04806481  0.40258513     0.00800
C895        C  0.27088990  0.05143334  0.43062560    -0.11400
C896        C  0.26738700  0.07028135  0.44078016     0.03300
C897        C  0.26651726  0.08613331  0.42261508    -0.10800
H898        H  0.27393621  0.06141768  0.36260356     0.08900
H899        H  0.27187146  0.03918935  0.44469085     0.06400
H900        H  0.26401778  0.10078922  0.43051355     0.06200
N901        N  0.29737370  0.15831615  0.28238952    -0.27100
N902        N  0.28466830  0.17076087  0.27193816    -0.35000
C903        C  0.29397293  0.18347407  0.25565549     0.01200
C904        C  0.31364019  0.17910244  0.25556246     0.07200
C905        C  0.31536125  0.16295000  0.27278499    -0.05900
H906        H  0.28713990  0.19617266  0.24652767     0.07900
H907        H  0.32878225  0.15631419  0.27976883     0.09100
Cu908      Cu  0.25630583  0.17397124  0.28535866     0.44200
Cu909      Cu  0.28845732  0.13837268  0.31266279     0.42000
Cu910      Cu  0.24147669  0.15244385  0.34753506     0.43900
N911        N  0.23125131  0.18226579  0.30572686    -0.34500
N912        N  0.22577981  0.17506363  0.32955680    -0.28800
C913        C  0.20988620  0.18495711  0.33835817    -0.04900
C914        C  0.20532254  0.19904447  0.31894965     0.07300
C915        C  0.21917269  0.19680735  0.29862770     0.01100
H916        H  0.20248710  0.18234588  0.35754892     0.08800
H917        H  0.22085187  0.20557589  0.28037499     0.07900
N918        N  0.25847515  0.12806937  0.35684650    -0.36000
N919        N  0.27446198  0.12235047  0.34377397    -0.28200
C920        C  0.28043657  0.10516023  0.35456323    -0.03400
C921        C  0.26785015  0.10007331  0.37558745     0.05200
C922        C  0.25422001  0.11496803  0.37648572     0.03300
H923        H  0.29332159  0.09724672  0.34812953     0.08400
H924        H  0.24190217  0.11609099  0.39024877     0.07200
C925        C  0.23214311  0.42976698  0.89217665     0.03300
C926        C  0.22819170  0.44894065  0.88298466    -0.12900
C927        C  0.22772067  0.46461957  0.90168213     0.00800
C928        C  0.23093721  0.46101088  0.92948824    -0.11400
C929        C  0.23475673  0.44203479  0.93889651     0.03300
C930        C  0.23542636  0.42643331  0.92019288    -0.10800
H931        H  0.22588354  0.45170208  0.86143435     0.08900
H932        H  0.23044267  0.47309064  0.94394714     0.06400
H933        H  0.23836001  0.41171796  0.92746630     0.06200
N934        N  0.20496500  0.35448743  0.77957680    -0.27100
N935        N  0.21785973  0.34238044  0.76866254    -0.35000
C936        C  0.20863992  0.32911133  0.75312691     0.01200
C937        C  0.18889328  0.33289616  0.75389310     0.07200
C938        C  0.18696963  0.34917676  0.77085297    -0.05900
H939        H  0.21569652  0.31663043  0.74365721     0.07900
H940        H  0.17348227  0.35553270  0.77816986     0.09100
Cu941      Cu  0.24676627  0.34061212  0.77970232     0.44200
Cu942      Cu  0.21344071  0.37501373  0.80931647     0.42000
Cu943      Cu  0.26226957  0.36333221  0.84010803     0.43900
N944        N  0.27248260  0.33311422  0.79864993    -0.34500
N945        N  0.27823866  0.34078112  0.82207342    -0.28800
C946        C  0.29428569  0.33110085  0.83066636    -0.04900
C947        C  0.29866416  0.31668978  0.81151465     0.07300
C948        C  0.28453366  0.31850317  0.79155972     0.01100
H949        H  0.30187067  0.33401332  0.84961915     0.08800
H950        H  0.28257062  0.30930396  0.77372950     0.07900
N951        N  0.24419439  0.38651069  0.85160184    -0.36000
N952        N  0.22733188  0.39132898  0.84016810    -0.28200
C953        C  0.22056177  0.40773968  0.85242303    -0.03400
C954        C  0.23359883  0.41323826  0.87268114     0.05200
C955        C  0.24829587  0.39943018  0.87159253     0.03300
H956        H  0.20691844  0.41484006  0.84745434     0.08400
H957        H  0.26121130  0.39892805  0.88425907     0.07200
C958        C  0.23262422  0.42932545  0.10264724     0.03300
C959        C  0.23552172  0.42630397  0.07450127    -0.12900
C960        C  0.23490462  0.44210142  0.05625698     0.00800
C961        C  0.23228887  0.46112610  0.06641527    -0.11400
C962        C  0.22957621  0.46447502  0.09444205     0.03300
C963        C  0.22947175  0.44849972  0.11259901    -0.10800
H964        H  0.23787237  0.41159657  0.06670158     0.08900
H965        H  0.23200634  0.47340888  0.05235567     0.06400
H966        H  0.22733784  0.45100896  0.13426596     0.06200
N967        N  0.20242638  0.35427034  0.21328068    -0.27100
N968        N  0.21539727  0.34250086  0.22457984    -0.35000
C969        C  0.20631990  0.32981075  0.24109271     0.01200
C970        C  0.18656626  0.33356712  0.24050443     0.07200
C971        C  0.18449063  0.34926943  0.22263387    -0.05900
H972        H  0.21345961  0.31762734  0.25107795     0.07900
H973        H  0.17094783  0.35540108  0.21522670     0.09100
Cu974      Cu  0.24409809  0.34005957  0.21272897     0.44200
Cu975      Cu  0.21098584  0.37392411  0.18267833     0.42000
Cu976      Cu  0.25892893  0.35977868  0.15022954     0.43900
N977        N  0.26958054  0.33154003  0.19388899    -0.34500
N978        N  0.27509201  0.33803858  0.16970209    -0.28800
C979        C  0.29128848  0.32822143  0.16189088    -0.04900
C980        C  0.29598788  0.31491876  0.18232774     0.07300
C981        C  0.28189624  0.31752835  0.20221758     0.01100
H982        H  0.29879981  0.33031531  0.14266197     0.08800
H983        H  0.28023217  0.30934928  0.22099900     0.07900
N984        N  0.24197647  0.38409119  0.14001904    -0.36000
N985        N  0.22564273  0.38979752  0.15223615    -0.28200
C986        C  0.22002563  0.40708433  0.14138692    -0.03400
C987        C  0.23325599  0.41229229  0.12124821     0.05200
C988        C  0.24683485  0.39733985  0.12086007     0.03300
H989        H  0.20701299  0.41501777  0.14724488     0.08400
H990        H  0.25956191  0.39631357  0.10783630     0.07200
C991        C  0.07573764  0.28202064  0.60582336     0.03300
C992        C  0.07898824  0.28141749  0.57746692    -0.12900
C993        C  0.06346712  0.28396248  0.55929585     0.00800
C994        C  0.04454758  0.28622675  0.56942030    -0.11400
C995        C  0.04089966  0.28636023  0.59759029     0.03300
C996        C  0.05663054  0.28466699  0.61590715    -0.10800
H997        H  0.09363569  0.27948302  0.56954284     0.08900
H998        H  0.03251315  0.28763745  0.55518161     0.06400
H999        H  0.05397971  0.28488660  0.63773227     0.06200
N1000       N  0.15157976  0.30472899  0.71794830    -0.27100
N1001       N  0.16250603  0.29080293  0.72865662    -0.35000
C1002       C  0.17616074  0.29887899  0.74465395     0.01200
C1003       C  0.17386208  0.31898156  0.74439548     0.07200
C1004       C  0.15804244  0.32229915  0.72724373    -0.05900
H1005       H  0.18805834  0.29079849  0.75378016     0.07900
H1006       H  0.15292614  0.33636887  0.72000518     0.09100
Cu1007     Cu  0.16265444  0.26222135  0.71537682     0.44200
Cu1008     Cu  0.13147785  0.29756942  0.68734952     0.42000
Cu1009     Cu  0.14327114  0.24974240  0.65126049     0.43900
N1010       N  0.17110711  0.23753976  0.69442997    -0.34500
N1011       N  0.16489019  0.23283644  0.66976063    -0.28800
C1012       C  0.17535341  0.21732851  0.66063242    -0.04900
C1013       C  0.18881877  0.21237208  0.68069641     0.07300
C1014       C  0.18557388  0.22549574  0.70170954     0.01100
H1015       H  0.17382775  0.21072254  0.64062723     0.08800
H1016       H  0.19375102  0.22688380  0.72050408     0.07900
N1017       N  0.11985577  0.26832983  0.64259213    -0.36000
N1018       N  0.11502912  0.28453007  0.65610247    -0.28200
C1019       C  0.09822404  0.29156058  0.64570061    -0.03400
C1020       C  0.09240946  0.27943545  0.62450658     0.05200
C1021       C  0.10650294  0.26500381  0.62300096     0.03300
H1022       H  0.09110056  0.30485976  0.65250409     0.08400
H1023       H  0.10691701  0.25280648  0.60881828     0.07200
C1024       C  0.07735420  0.28325050  0.39588943     0.03300
C1025       C  0.08010545  0.28228504  0.42432228    -0.12900
C1026       C  0.06411476  0.28328610  0.44206573     0.00800
C1027       C  0.04528742  0.28477407  0.43141842    -0.11400
C1028       C  0.04217522  0.28542027  0.40316414     0.03300
C1029       C  0.05827989  0.28490928  0.38528750    -0.10800
H1030       H  0.09469401  0.28107042  0.43267028     0.08900
H1031       H  0.03291137  0.28517861  0.44525012     0.06400
H1032       H  0.05595462  0.28519083  0.36339917     0.06200
N1033       N  0.15087099  0.30610025  0.28020183    -0.27100
N1034       N  0.16179874  0.29206968  0.26966328    -0.35000
C1035       C  0.17451218  0.29980437  0.25195144     0.01200
C1036       C  0.17173053  0.31982978  0.25101706     0.07200
C1037       C  0.15650146  0.32343200  0.26919066    -0.05900
H1038       H  0.18639351  0.29169619  0.24273964     0.07900
H1039       H  0.15141565  0.33764179  0.27602578     0.09100
Cu1040     Cu  0.16391102  0.26436684  0.28556912     0.44200
Cu1041     Cu  0.13212400  0.29949428  0.31279358     0.42000
Cu1042     Cu  0.14577597  0.25272839  0.35054060     0.43900
N1043       N  0.17299811  0.24012062  0.30672088    -0.34500
N1044       N  0.16703090  0.23550592  0.33153094    -0.28800
C1045       C  0.17713641  0.21960980  0.34003826    -0.04900
C1046       C  0.19010060  0.21431970  0.31940015     0.07300
C1047       C  0.18696882  0.22768381  0.29875063     0.01100
H1048       H  0.17555080  0.21278865  0.35986015     0.08800
H1049       H  0.19468595  0.22875062  0.27951925     0.07900
N1050       N  0.12224249  0.27118009  0.35949599    -0.36000
N1051       N  0.11670894  0.28687997  0.34547830    -0.28200
C1052       C  0.09969431  0.29346501  0.35593195    -0.03400
C1053       C  0.09449152  0.28159507  0.37768680     0.05200
C1054       C  0.10916935  0.26778904  0.37945750     0.03300
H1055       H  0.09185162  0.30613964  0.34850566     0.08400
H1056       H  0.11000018  0.25575469  0.39379962     0.07200
C1057       C  0.06426818  0.30120768  0.48587099    -0.20200
C1058       C  0.06674202  0.28340069  0.47197482    -0.06700
C1059       C  0.06973642  0.26595642  0.48688832     0.14100
C1060       C  0.06979613  0.26670522  0.51559083    -0.20200
C1061       C  0.06663635  0.28445721  0.52948516    -0.06700
C1062       C  0.06420774  0.30198730  0.51445536     0.14100
C1063       C  0.06124013  0.32169747  0.52788492    -0.23600
H1064       H  0.06188358  0.31454541  0.47429264     0.15400
H1065       H  0.07140876  0.25329188  0.52724042     0.15500
C1066       C  0.07195268  0.24651307  0.47254323    -0.23500
H1067       H  0.07273761  0.33201390  0.52083037     0.05700
H1068       H  0.06201806  0.32108555  0.55048628     0.08900
H1069       H  0.04675168  0.32762631  0.52206739     0.08900
H1070       H  0.08494847  0.24689609  0.45899953     0.08900
H1071       H  0.05876932  0.24344537  0.46006697     0.08900
H1072       H  0.07382688  0.23428089  0.48727358     0.05700
C1073       C  0.22167269  0.42982520  0.98281974    -0.20200
C1074       C  0.23705807  0.43881098  0.96863221    -0.06700
C1075       C  0.25276610  0.44707017  0.98348619     0.14100
C1076       C  0.25212041  0.44713077  0.01215162    -0.20200
C1077       C  0.23626614  0.43899991  0.02633516    -0.06700
C1078       C  0.22100466  0.42993982  0.01152051     0.14100
C1079       C  0.20341282  0.42152171  0.02583840    -0.23600
H1080       H  0.20957894  0.42370109  0.97135197     0.15400
H1081       H  0.26383956  0.45404087  0.02353471     0.15500
C1082       C  0.27025906  0.45615666  0.96973243    -0.23500
H1083       H  0.19247106  0.41581721  0.01109120     0.05700
H1084       H  0.19629928  0.43306142  0.03841853     0.08900
H1085       H  0.20786244  0.40918118  0.03918220     0.08900
H1086       H  0.27114345  0.47196543  0.97514711     0.08900
H1087       H  0.26980650  0.45482408  0.94716078     0.08900
H1088       H  0.28371781  0.44871437  0.97686784     0.05700
C1089       C  0.25139404  0.06402966  0.51442972    -0.20200
C1090       C  0.26692692  0.07302678  0.52826616    -0.06700
C1091       C  0.28144086  0.08307185  0.51320146     0.14100
C1092       C  0.28053114  0.08306113  0.48452047    -0.20200
C1093       C  0.26559126  0.07309126  0.47067547    -0.06700
C1094       C  0.25049230  0.06400585  0.48579208     0.14100
C1095       C  0.23341682  0.05430423  0.47178868    -0.23600
H1096       H  0.24021362  0.05652036  0.52612674     0.15400
H1097       H  0.29206877  0.08997980  0.47280149     0.15500
C1098       C  0.29848060  0.09281176  0.52719949    -0.23500
H1099       H  0.22251087  0.04882689  0.48675962     0.05700
H1100       H  0.23834107  0.04158481  0.45944207     0.08900
H1101       H  0.22606125  0.06505652  0.45826770     0.08900
H1102       H  0.30646457  0.08189776  0.53973834     0.08900
H1103       H  0.29325857  0.10489992  0.54052401     0.08900
H1104       H  0.30890300  0.09918924  0.51224666     0.05700
C1105       C  0.44208064  0.25132514  0.98389409    -0.20200
C1106       C  0.43328662  0.23540723  0.97047602    -0.06700
C1107       C  0.42370717  0.22081232  0.98599751     0.14100
C1108       C  0.42387244  0.22209882  0.01467776    -0.20200
C1109       C  0.43365830  0.23744043  0.02810063    -0.06700
C1110       C  0.44232179  0.25259107  0.01248283     0.14100
C1111       C  0.45219056  0.27012040  0.02529783    -0.23600
H1112       H  0.44934988  0.26256446  0.97194692     0.15400
H1113       H  0.41736172  0.21046144  0.02671771     0.15500
C1114       C  0.41443347  0.20325192  0.97246659    -0.23500
H1115       H  0.44536473  0.28378345  0.01753708     0.05700
H1116       H  0.46790095  0.27016411  0.01973671     0.08900
H1117       H  0.45094272  0.27034758  0.04788007     0.08900
H1118       H  0.42549534  0.19525545  0.96016263     0.08900
H1119       H  0.40237810  0.20805789  0.95895544     0.08900
H1120       H  0.40826874  0.19288231  0.98769691     0.05700
C1121       C  0.29278197  0.99662044  0.39713092    -0.20200
C1122       C  0.27542979  0.98598938  0.39350113    -0.06700
C1123       C  0.25797953  0.99618818  0.38772670     0.14100
C1124       C  0.25806116  0.01683569  0.38745593    -0.20200
C1125       C  0.27509678  0.02744288  0.39345060    -0.06700
C1126       C  0.29278219  0.01724309  0.39739296     0.14100
C1127       C  0.31141036  0.02814611  0.40350159    -0.23600
H1128       H  0.30607949  0.98875496  0.40191069     0.15400
H1129       H  0.24445331  0.02471497  0.38493654     0.15500
C1130       C  0.23902032  0.98532076  0.38393516    -0.23500
H1131       H  0.32395519  0.01798956  0.40582053     0.05700
H1132       H  0.30988325  0.03660651  0.42279151     0.08900
H1133       H  0.31472377  0.03841152  0.38652243     0.08900
H1134       H  0.23552154  0.97680601  0.40264004     0.08900
H1135       H  0.24028090  0.97511042  0.36631765     0.08900
H1136       H  0.22671516  0.99549900  0.37991418     0.05700
C1137       C  0.26185944  0.99551731  0.61436355    -0.20200
C1138       C  0.27915080  0.98616376  0.60623601    -0.06700
C1139       C  0.29590637  0.99757749  0.60072715     0.14100
C1140       C  0.29444269  0.01812666  0.60061514    -0.20200
C1141       C  0.27658892  0.02743290  0.60582038    -0.06700
C1142       C  0.26036174  0.01609731  0.61409400     0.14100
C1143       C  0.24111254  0.02565479  0.62063688    -0.23600
H1144       H  0.24901818  0.98669713  0.61850836     0.15400
H1145       H  0.30687170  0.02691204  0.59439186     0.15500
C1146       C  0.31504789  0.98801557  0.59358859    -0.23500
H1147       H  0.22986910  0.01467056  0.62645995     0.05700
H1148       H  0.23571585  0.03382229  0.60255534     0.08900
H1149       H  0.24298594  0.03601297  0.63798149     0.08900
H1150       H  0.31357751  0.97925193  0.57456578     0.08900
H1151       H  0.31959220  0.97822017  0.61052275     0.08900
H1152       H  0.32675683  0.99905409  0.59031888     0.05700
C1153       C  0.28594458  0.93057952  0.51430380    -0.20200
C1154       C  0.27110211  0.94056671  0.52835464    -0.06700
C1155       C  0.25569801  0.94919368  0.51344333     0.14100
C1156       C  0.25606037  0.94849118  0.48480169    -0.20200
C1157       C  0.27145636  0.93947634  0.47064821    -0.06700
C1158       C  0.28640642  0.93005765  0.48556693     0.14100
C1159       C  0.30341604  0.92047519  0.47133328    -0.23600
H1160       H  0.29771911  0.92400460  0.52586278     0.15400
H1161       H  0.24458981  0.95562429  0.47327772     0.15500
C1162       C  0.23885986  0.95916969  0.52763066    -0.23500
H1163       H  0.31417900  0.91459224  0.48614653     0.05700
H1164       H  0.31099590  0.93135290  0.45818957     0.08900
H1165       H  0.29822925  0.90805534  0.45857610     0.08900
H1166       H  0.24399086  0.97223586  0.53909368     0.08900
H1167       H  0.23178068  0.94875723  0.54198790     0.08900
H1168       H  0.22766299  0.96420716  0.51284179     0.05700
C1169       C  0.43746413  0.80072636  0.98443926    -0.20200
C1170       C  0.43283659  0.78365653  0.96976014    -0.06700
C1171       C  0.42682599  0.76664574  0.98402296     0.14100
C1172       C  0.42659335  0.76689355  0.01275581    -0.20200
C1173       C  0.43234023  0.78366679  0.02736351    -0.06700
C1174       C  0.43714553  0.80101136  0.01302860     0.14100
C1175       C  0.44225783  0.81998581  0.02724688    -0.23600
H1176       H  0.44183447  0.81383609  0.97346677     0.15400
H1177       H  0.42295240  0.75364229  0.02388674     0.15500
C1178       C  0.42183399  0.74791042  0.96916503    -0.23500
H1179       H  0.43233775  0.83176792  0.02008596     0.05700
H1180       H  0.45751916  0.82413618  0.02224875     0.08900
H1181       H  0.44078415  0.81913091  0.04977122     0.08900
H1182       H  0.43435437  0.74325118  0.95629252     0.08900
H1183       H  0.40884165  0.75014790  0.95606908     0.08900
H1184       H  0.41841887  0.73581182  0.98358620     0.05700
C1185       C  0.06605995  0.71888848  0.48345734    -0.20200
C1186       C  0.06844833  0.73711380  0.47071306    -0.06700
C1187       C  0.07221359  0.75396150  0.48670034     0.14100
C1188       C  0.07267460  0.75227174  0.51535277    -0.20200
C1189       C  0.06932583  0.73413322  0.52813376    -0.06700
C1190       C  0.06658365  0.71713821  0.51193488     0.14100
C1191       C  0.06391026  0.69697335  0.52401656    -0.23600
H1192       H  0.06330307  0.70596335  0.47106205     0.15400
H1193       H  0.07468506  0.76526926  0.52785203     0.15500
C1194       C  0.07486393  0.77375515  0.47358773    -0.23500
H1195       H  0.07519506  0.68695081  0.51562266     0.05700
H1196       H  0.04926642  0.69121869  0.51851087     0.08900
H1197       H  0.06531322  0.69679386  0.54657473     0.08900
H1198       H  0.06159825  0.77761988  0.46177440     0.08900
H1199       H  0.08761607  0.77338998  0.45959206     0.08900
H1200       H  0.07741263  0.78543651  0.48904883     0.05700
C1201       C  0.20865332  0.51545059  0.10019513    -0.20200
C1202       C  0.22570014  0.52641296  0.10468220    -0.06700
C1203       C  0.24320162  0.51655427  0.11120304     0.14100
C1204       C  0.24362524  0.49591125  0.11081729    -0.20200
C1205       C  0.22699107  0.48501518  0.10372828    -0.06700
C1206       C  0.20911922  0.49483653  0.09958350     0.14100
C1207       C  0.19080649  0.48354871  0.09297619    -0.23600
H1208       H  0.19528473  0.52306619  0.09503606     0.15400
H1209       H  0.25733820  0.48831311  0.11381489     0.15500
C1210       C  0.26173984  0.52783606  0.11647774    -0.23500
H1211       H  0.17805714  0.49342934  0.09054119     0.05700
H1212       H  0.18756240  0.47310572  0.10977318     0.08900
H1213       H  0.19272218  0.47523843  0.07362626     0.08900
H1214       H  0.25967167  0.53771436  0.13431293     0.08900
H1215       H  0.26559860  0.53674867  0.09827486     0.08900
H1216       H  0.27416300  0.51790799  0.12095351     0.05700
C1217       C  0.20780311  0.51611583  0.90086092    -0.20200
C1218       C  0.22444982  0.52663099  0.89278563    -0.06700
C1219       C  0.24068672  0.51629406  0.88228719     0.14100
C1220       C  0.24048526  0.49563123  0.88232135    -0.20200
C1221       C  0.22456243  0.48518475  0.89303934    -0.06700
C1222       C  0.20766893  0.49554068  0.90119277     0.14100
C1223       C  0.18969040  0.48531455  0.91180096    -0.23600
H1224       H  0.19533707  0.52402547  0.90893109     0.15400
H1225       H  0.25345578  0.48764749  0.87623868     0.15500
C1226       C  0.25878850  0.52698633  0.87314526    -0.23500
H1227       H  0.17688874  0.48970289  0.89936137     0.05700
H1228       H  0.18710486  0.48964372  0.93339173     0.08900
H1229       H  0.19084235  0.46909709  0.91078466     0.08900
H1230       H  0.26480257  0.53577327  0.89032324     0.08900
H1231       H  0.25518255  0.53689931  0.85591472     0.08900
H1232       H  0.27028684  0.51667165  0.86610768     0.05700
C1233       C  0.24742642  0.56953711  0.98426693    -0.20200
C1234       C  0.23003092  0.57301559  0.97003958    -0.06700
C1235       C  0.21273321  0.57703482  0.98469108     0.14100
C1236       C  0.21311036  0.57703546  0.01337813    -0.20200
C1237       C  0.23033054  0.57281095  0.02759672    -0.06700
C1238       C  0.24775862  0.56934453  0.01296704     0.14100
C1239       C  0.26655054  0.56502641  0.02768532    -0.23600
H1240       H  0.26060094  0.56627864  0.97286064     0.15400
H1241       H  0.19975672  0.57947769  0.02477366     0.15500
C1242       C  0.19374690  0.58048587  0.97001798    -0.23500
H1243       H  0.27884711  0.56284212  0.01319750     0.05700
H1244       H  0.26495754  0.55147388  0.04004629     0.08900
H1245       H  0.27027643  0.57748162  0.04139553     0.08900
H1246       H  0.18994806  0.56740493  0.95752738     0.08900
H1247       H  0.19515269  0.59344581  0.95644323     0.08900
H1248       H  0.18158006  0.58324941  0.98452896     0.05700
C1249       C  0.51116243  0.76476303  0.10454394    -0.20200
C1250       C  0.52122124  0.78262507  0.10231186    -0.06700
C1251       C  0.51057223  0.80034881  0.10219385     0.14100
C1252       C  0.49005463  0.79973996  0.10277443    -0.20200
C1253       C  0.47995633  0.78178935  0.10296060    -0.06700
C1254       C  0.49067342  0.76409116  0.10461239     0.14100
C1255       C  0.48101068  0.74420620  0.10450155    -0.23600
H1256       H  0.51932691  0.75114472  0.10413455     0.15400
H1257       H  0.48184067  0.81326038  0.10100496     0.15500
C1258       C  0.52086579  0.81981713  0.09992399    -0.23500
H1259       H  0.48547931  0.73595204  0.12299748     0.05700
H1260       H  0.48566735  0.73589195  0.08607835     0.08900
H1261       H  0.46486928  0.74504250  0.10445900     0.08900
H1262       H  0.52923488  0.82048999  0.08050925     0.08900
H1263       H  0.53105236  0.82164193  0.11737103     0.08900
H1264       H  0.51041915  0.83226171  0.10019553     0.05700
C1265       C  0.51088432  0.80636035  0.89917233    -0.20200
C1266       C  0.52084030  0.78903989  0.89235850    -0.06700
C1267       C  0.51004935  0.77256640  0.88330252     0.14100
C1268       C  0.48952172  0.77329339  0.88349291    -0.20200
C1269       C  0.47960201  0.78999272  0.89294238    -0.06700
C1270       C  0.49041995  0.80705836  0.89951833     0.14100
C1271       C  0.48077774  0.82591768  0.90825798    -0.23600
H1272       H  0.51912554  0.81902751  0.90608204     0.15400
H1273       H  0.48121608  0.76020837  0.87856548     0.15500
C1274       C  0.52010756  0.75370398  0.87561908    -0.23500
H1275       H  0.48558522  0.83799352  0.89460313     0.05700
H1276       H  0.48506392  0.82950684  0.92956758     0.08900
H1277       H  0.46463279  0.82515131  0.90722775     0.08900
H1278       H  0.52877465  0.74822294  0.89316765     0.08900
H1279       H  0.52994156  0.75626505  0.85794787     0.08900
H1280       H  0.50949476  0.74210517  0.86976482     0.05700
C1281       C  0.57115363  0.76504558  0.98170302    -0.20200
C1282       C  0.56768882  0.78307897  0.96878661    -0.06700
C1283       C  0.56580947  0.80028316  0.98472598     0.14100
C1284       C  0.56625974  0.79887513  0.01329686    -0.20200
C1285       C  0.56855796  0.78070767  0.02626996    -0.06700
C1286       C  0.57150687  0.76364422  0.01037342     0.14100
C1287       C  0.57410768  0.74390690  0.02363885    -0.23600
H1288       H  0.57265079  0.75191160  0.96934077     0.15400
H1289       H  0.56405674  0.81191257  0.02565860     0.15500
C1290       C  0.56316894  0.82010672  0.97163889    -0.23500
H1291       H  0.57594318  0.73205360  0.00823375     0.05700
H1292       H  0.56112496  0.74038267  0.03631425     0.08900
H1293       H  0.58727292  0.74413473  0.03682170     0.08900
H1294       H  0.54932459  0.82051405  0.95994901     0.08900
H1295       H  0.57556077  0.82310820  0.95761578     0.08900
H1296       H  0.56264932  0.83204484  0.98711421     0.05700
C1297       C  0.71636882  0.92968046  0.48294436    -0.20200
C1298       C  0.73251735  0.93759403  0.46921054    -0.06700
C1299       C  0.74860839  0.94462644  0.48436674     0.14100
C1300       C  0.74773766  0.94454745  0.51303485    -0.20200
C1301       C  0.73117661  0.93753805  0.52677623    -0.06700
C1302       C  0.71547154  0.92964542  0.51162697     0.14100
C1303       C  0.69737713  0.92213758  0.52567095    -0.23600
H1304       H  0.70403495  0.92441382  0.47116160     0.15400
H1305       H  0.75976591  0.95050558  0.52480309     0.15500
C1306       C  0.76656929  0.95240629  0.47025745    -0.23500
H1307       H  0.68628529  0.91698267  0.51075484     0.05700
H1308       H  0.69076835  0.93402742  0.53815841     0.08900
H1309       H  0.70115020  0.90961839  0.53912284     0.08900
H1310       H  0.76284294  0.96544676  0.45777895     0.08900
H1311       H  0.77276174  0.94086011  0.45676846     0.08900
H1312       H  0.77797903  0.95684012  0.48514857     0.05700
C1313       C  0.99147744  0.71534935  0.39455492    -0.20200
C1314       C  0.98079171  0.73286344  0.39325812    -0.06700
C1315       C  0.99079629  0.75085839  0.39004175     0.14100
C1316       C  0.01131679  0.75105222  0.39012386    -0.20200
C1317       C  0.02196633  0.73368984  0.39380874    -0.06700
C1318       C  0.01197549  0.71557610  0.39505071     0.14100
C1319       C  0.02295481  0.69662849  0.39862422    -0.23600
H1320       H  0.98374215  0.70160533  0.39733096     0.15400
H1321       H  0.01904224  0.76494180  0.38953170     0.15500
C1322       C  0.97981013  0.76995507  0.38855019    -0.23500
H1323       H  0.01296807  0.68378082  0.39912944     0.05700
H1324       H  0.03125205  0.69693381  0.41809156     0.08900
H1325       H  0.03327992  0.69462734  0.38134661     0.08900
H1326       H  0.97109979  0.77210237  0.40746821     0.08900
H1327       H  0.96986513  0.76972065  0.37066380     0.08900
H1328       H  0.98982462  0.78268628  0.38633574     0.05700
C1329       C  0.99099605  0.74353879  0.60986419    -0.20200
C1330       C  0.98141533  0.72581097  0.60400939    -0.06700
C1331       C  0.99254239  0.70851831  0.60072962     0.14100
C1332       C  0.01304126  0.70965002  0.60108331    -0.20200
C1333       C  0.02262914  0.72770495  0.60452632    -0.06700
C1334       C  0.01149321  0.74471225  0.60993309     0.14100
C1335       C  0.02124113  0.76435665  0.61372630    -0.23600
H1336       H  0.98243447  0.75680886  0.61213291     0.15400
H1337       H  0.02161350  0.69665551  0.59672140     0.15500
C1338       C  0.98275463  0.68904284  0.59566666    -0.23500
H1339       H  0.01044761  0.77620588  0.61746158     0.05700
H1340       H  0.02972220  0.76820143  0.59513802     0.08900
H1341       H  0.03124362  0.76374685  0.63152746     0.08900
H1342       H  0.97431880  0.68950830  0.57634297     0.08900
H1343       H  0.97271316  0.68566677  0.61285319     0.08900
H1344       H  0.99353464  0.67694347  0.59401889     0.05700
C1345       C  0.92953579  0.74664396  0.51439438    -0.20200
C1346       C  0.93433596  0.72895730  0.52742759    -0.06700
C1347       C  0.93793966  0.71202030  0.51142443     0.14100
C1348       C  0.93774409  0.71347147  0.48284643    -0.20200
C1349       C  0.93381837  0.73133270  0.46979759    -0.06700
C1350       C  0.92936186  0.74805787  0.48570367     0.14100
C1351       C  0.92548307  0.76758714  0.47244488    -0.23600
H1352       H  0.92689306  0.75961323  0.52671134     0.15400
H1353       H  0.94120295  0.70065284  0.47060016     0.15500
C1354       C  0.94222818  0.69224601  0.52380545    -0.23500
H1355       H  0.92271011  0.77925396  0.48784573     0.05700
H1356       H  0.91246644  0.76647530  0.45906384     0.08900
H1357       H  0.93829133  0.77204545  0.45998594     0.08900
H1358       H  0.94120553  0.69222131  0.54640720     0.08900
H1359       H  0.95714399  0.68752565  0.51787808     0.08900
H1360       H  0.93154223  0.68131637  0.51604683     0.05700
C1361       C  0.75872604  0.57424643  0.98107024    -0.20200
C1362       C  0.77646500  0.57152505  0.96723342    -0.06700
C1363       C  0.79399615  0.57032821  0.98229804     0.14100
C1364       C  0.79333182  0.57139430  0.01091523    -0.20200
C1365       C  0.77555367  0.57337960  0.02483320    -0.06700
C1366       C  0.75805333  0.57495934  0.00980119     0.14100
C1367       C  0.73866155  0.57645004  0.02412475    -0.23600
H1368       H  0.74531146  0.57493909  0.96940574     0.15400
H1369       H  0.80667677  0.56992413  0.02260377     0.15500
C1370       C  0.81338956  0.56765282  0.96821769    -0.23500
H1371       H  0.72638517  0.57723128  0.00937442     0.05700
H1372       H  0.73833228  0.58987479  0.03700390     0.08900
H1373       H  0.73639618  0.56337804  0.03727621     0.08900
H1374       H  0.81582886  0.57981638  0.95353669     0.08900
H1375       H  0.81367432  0.55345886  0.95707738     0.08900
H1376       H  0.82565881  0.56763395  0.98302264     0.05700
C1377       C  0.98928606  0.29965324  0.39583245    -0.20200
C1378       C  0.98065711  0.28107303  0.39294898    -0.06700
C1379       C  0.99270872  0.26459548  0.38793121     0.14100
C1380       C  0.01308902  0.26690345  0.38797413    -0.20200
C1381       C  0.02170036  0.28516944  0.39348256    -0.06700
C1382       C  0.00968272  0.30186514  0.39638578     0.14100
C1383       C  0.01840644  0.32181871  0.40163894    -0.23600
H1384       H  0.98004818  0.31222475  0.39990541     0.15400
H1385       H  0.02229979  0.25404584  0.38606213     0.15500
C1386       C  0.98460374  0.24417845  0.38442383    -0.23500
H1387       H  0.00700258  0.33333330  0.40316294     0.05700
H1388       H  0.02839321  0.32574378  0.38462024     0.08900
H1389       H  0.02671096  0.32175405  0.42109500     0.08900
H1390       H  0.96843953  0.24378211  0.38469941     0.08900
H1391       H  0.99003108  0.23462757  0.40112185     0.08900
H1392       H  0.98953360  0.23807468  0.36452944     0.05700
C1393       C  0.98995827  0.26979468  0.61601369    -0.20200
C1394       C  0.97909693  0.28544327  0.60533603    -0.06700
C1395       C  0.98880826  0.30292221  0.59777253     0.14100
C1396       C  0.00923676  0.30366514  0.59865728    -0.20200
C1397       C  0.02024146  0.28728312  0.60657700    -0.06700
C1398       C  0.01048332  0.27043079  0.61648168     0.14100
C1399       C  0.02166646  0.25249950  0.62522393    -0.23600
H1400       H  0.98245920  0.25636931  0.62160650     0.15400
H1401       H  0.01669077  0.31658540  0.59098835     0.15500
C1402       C  0.97807205  0.32058535  0.58706103    -0.23500
H1403       H  0.01176803  0.24042270  0.63160093     0.05700
H1404       H  0.03118301  0.25620192  0.64282731     0.08900
H1405       H  0.03078911  0.24706825  0.60804078     0.08900
H1406       H  0.96200004  0.31873905  0.58765827     0.08900
H1407       H  0.98253004  0.32341353  0.56560123     0.08900
H1408       H  0.98177186  0.33361209  0.59971070     0.05700
C1409       C  0.92356985  0.28495661  0.51381434    -0.20200
C1410       C  0.93475634  0.27106189  0.52795893    -0.06700
C1411       C  0.94513575  0.25666958  0.51297867     0.14100
C1412       C  0.94504824  0.25732843  0.48433151    -0.20200
C1413       C  0.93467862  0.27182894  0.47012638    -0.06700
C1414       C  0.92347254  0.28561124  0.48508051     0.14100
C1415       C  0.91244537  0.30182141  0.47101712    -0.23600
H1416       H  0.91572747  0.29602705  0.52534823     0.15400
H1417       H  0.95353979  0.24666648  0.47293680     0.15500
C1418       C  0.95655195  0.24049338  0.52651819    -0.23500
H1419       H  0.90555180  0.31198244  0.48593712     0.05700
H1420       H  0.90064266  0.29557394  0.45819840     0.08900
H1421       H  0.92254642  0.31051378  0.45803592     0.08900
H1422       H  0.95494650  0.24041974  0.54905400     0.08900
H1423       H  0.97226536  0.24207215  0.52142250     0.08900
H1424       H  0.95130807  0.22605989  0.51889918     0.05700
C1425       C  0.79663954  0.49671255  0.10030485    -0.20200
C1426       C  0.77899178  0.48707285  0.10596222    -0.06700
C1427       C  0.76238707  0.49826210  0.11300702     0.14100
C1428       C  0.76338526  0.51886779  0.11189012    -0.20200
C1429       C  0.78052289  0.52839628  0.10347261    -0.06700
C1430       C  0.79758474  0.51727057  0.09890315     0.14100
C1431       C  0.81654434  0.52707173  0.09129904    -0.23600
H1432       H  0.80933595  0.48806809  0.09486988     0.15400
H1433       H  0.75031838  0.52747852  0.11531357     0.15500
C1434       C  0.74327123  0.48844556  0.11966556    -0.23500
H1435       H  0.82854061  0.51625374  0.08898210     0.05700
H1436       H  0.82073589  0.53767042  0.10753429     0.08900
H1437       H  0.81500699  0.53499321  0.07163517     0.08900
H1438       H  0.74510753  0.47884601  0.13777858     0.08900
H1439       H  0.73835115  0.47943071  0.10203704     0.08900
H1440       H  0.73168653  0.49932680  0.12436520     0.05700
C1441       C  0.76825594  0.49297168  0.88345938    -0.20200
C1442       C  0.78495919  0.48373672  0.89381093    -0.06700
C1443       C  0.80178372  0.49506795  0.89928000     0.14100
C1444       C  0.80076565  0.51558935  0.89737993    -0.20200
C1445       C  0.78328295  0.52497332  0.89030674    -0.06700
C1446       C  0.76717849  0.51354138  0.88179489     0.14100
C1447       C  0.74835998  0.52304693  0.87314646    -0.23600
H1448       H  0.75543876  0.48418972  0.87901854     0.15400
H1449       H  0.81313513  0.52442381  0.90372292     0.15500
C1450       C  0.82052388  0.48558544  0.90828512    -0.23500
H1451       H  0.73712611  0.51197372  0.86759627     0.05700
H1452       H  0.75100517  0.53246038  0.85502805     0.08900
H1453       H  0.74248989  0.53218043  0.89006977     0.08900
H1454       H  0.82526098  0.47470822  0.89272166     0.08900
H1455       H  0.81839981  0.47808943  0.92810742     0.08900
H1456       H  0.83239591  0.49654264  0.91089333     0.05700
C1457       C  0.75913856  0.43659392  0.98581484    -0.20200
C1458       C  0.77729320  0.43894576  0.97290053    -0.06700
C1459       C  0.79437280  0.44033995  0.98890795     0.14100
C1460       C  0.79281733  0.44053950  0.01746290    -0.20200
C1461       C  0.77462126  0.43924002  0.03039230    -0.06700
C1462       C  0.75760764  0.43677690  0.01450538     0.14100
C1463       C  0.73786511  0.43511915  0.02781323    -0.23600
H1464       H  0.74609019  0.43542717  0.97342053     0.15400
H1465       H  0.80581441  0.44236971  0.02982569     0.15500
C1466       C  0.81424245  0.44179305  0.97589585    -0.23500
H1467       H  0.72606204  0.43346302  0.01244355     0.05700
H1468       H  0.73486411  0.44850180  0.04009500     0.08900
H1469       H  0.73753269  0.42209662  0.04140307     0.08900
H1470       H  0.81533247  0.45545612  0.96379549     0.08900
H1471       H  0.81667755  0.42895634  0.96230836     0.08900
H1472       H  0.82605067  0.44206840  0.99141703     0.05700
C1473       C  0.70640954  0.99391309  0.39833832    -0.20200
C1474       C  0.72409025  0.98424028  0.39311395    -0.06700
C1475       C  0.74076900  0.99543282  0.38630511     0.14100
C1476       C  0.73979635  0.01606734  0.38715473    -0.20200
C1477       C  0.72257552  0.02568571  0.39499517    -0.06700
C1478       C  0.70547008  0.01451724  0.39937256     0.14100
C1479       C  0.68646100  0.02435923  0.40648335    -0.23600
H1480       H  0.69365900  0.98529618  0.40367910     0.15400
H1481       H  0.75292503  0.02465611  0.38395683     0.15500
C1482       C  0.75994341  0.98557331  0.38021177    -0.23500
H1483       H  0.67443902  0.01354162  0.40882365     0.05700
H1484       H  0.68241158  0.03473809  0.38998095     0.08900
H1485       H  0.68787146  0.03254457  0.42600893     0.08900
H1486       H  0.75829080  0.97577267  0.36220878     0.08900
H1487       H  0.76465603  0.97675493  0.39807987     0.08900
H1488       H  0.77159693  0.99641993  0.37560307     0.05700
C1489       C  0.70525158  0.01401660  0.60197846    -0.20200
C1490       C  0.72253271  0.02421362  0.60802969    -0.06700
C1491       C  0.73936040  0.01351273  0.61541294     0.14100
C1492       C  0.73901444  0.99288163  0.61409903    -0.20200
C1493       C  0.72230451  0.98281941  0.60521416    -0.06700
C1494       C  0.70496386  0.99342179  0.60040539     0.14100
C1495       C  0.68643891  0.98302769  0.59227968    -0.23600
H1496       H  0.69237422  0.02226129  0.59627621     0.15400
H1497       H  0.75229388  0.98467989  0.61775669     0.15500
C1498       C  0.75809281  0.02389219  0.62255155    -0.23500
H1499       H  0.67414731  0.99345980  0.58968706     0.05700
H1500       H  0.68233950  0.97231073  0.60836342     0.08900
H1501       H  0.68855028  0.97513784  0.57263835     0.08900
H1502       H  0.75574822  0.03340512  0.64069924     0.08900
H1503       H  0.76297178  0.03307063  0.60509892     0.08900
H1504       H  0.76993604  0.01336023  0.62741829     0.05700
C1505       C  0.71124038  0.07417806  0.51755499    -0.20200
C1506       C  0.72878510  0.07079176  0.53145335    -0.06700
C1507       C  0.74614366  0.06790048  0.51641219     0.14100
C1508       C  0.74549953  0.06813846  0.48768721    -0.20200
C1509       C  0.72784220  0.07099491  0.47378939    -0.06700
C1510       C  0.71054805  0.07417939  0.48885883     0.14100
C1511       C  0.69126689  0.07681872  0.47461848    -0.23600
H1512       H  0.69791340  0.07602619  0.52922651     0.15400
H1513       H  0.75867168  0.06542434  0.47600429     0.15500
C1514       C  0.76518470  0.06402118  0.53072303    -0.23500
H1515       H  0.67915073  0.07899369  0.48940500     0.05700
H1516       H  0.68790987  0.06361667  0.46212991     0.08900
H1517       H  0.69195016  0.08986332  0.46109564     0.08900
H1518       H  0.76401399  0.05042718  0.54309512     0.08900
H1519       H  0.76876785  0.07654681  0.54438114     0.08900
H1520       H  0.77737191  0.06212869  0.51597595     0.05700
C1521       C  0.49027588  0.24496817  0.11379374    -0.20200
C1522       C  0.48068482  0.22826654  0.10360523    -0.06700
C1523       C  0.49188567  0.21179347  0.09560375     0.14100
C1524       C  0.51233188  0.21299337  0.09595050    -0.20200
C1525       C  0.52192418  0.23029243  0.10388368    -0.06700
C1526       C  0.51078697  0.24626440  0.11369222     0.14100
C1527       C  0.52048272  0.26521413  0.12193749    -0.23600
H1528       H  0.48169589  0.25768001  0.11952961     0.15400
H1529       H  0.52083911  0.20079954  0.08814030     0.15500
C1530       C  0.48268237  0.19311618  0.08522183    -0.23500
H1531       H  0.50967436  0.27635262  0.12867435     0.05700
H1532       H  0.52873363  0.27134876  0.10436588     0.08900
H1533       H  0.53068240  0.26249277  0.13911179     0.08900
H1534       H  0.48705248  0.19063454  0.06363172     0.08900
H1535       H  0.46652534  0.19339194  0.08632089     0.08900
H1536       H  0.48777482  0.18056608  0.09775388     0.05700
C1537       C  0.51076394  0.24408873  0.88605222    -0.20200
C1538       C  0.52120069  0.22765609  0.89515005    -0.06700
C1539       C  0.51096902  0.21022910  0.90152225     0.14100
C1540       C  0.49046529  0.21016441  0.90090670    -0.20200
C1541       C  0.47997266  0.22717769  0.89431610    -0.06700
C1542       C  0.49023187  0.24410804  0.88579294     0.14100
C1543       C  0.47952896  0.26266066  0.87850946    -0.23600
H1544       H  0.51865124  0.25746907  0.88135342     0.15400
H1545       H  0.48255804  0.19723530  0.90757174     0.15500
C1546       C  0.52168093  0.19197590  0.91014552    -0.23500
H1547       H  0.48973438  0.27464423  0.87276645     0.05700
H1548       H  0.47072712  0.26774039  0.89622192     0.08900
H1549       H  0.46971735  0.25984291  0.86090063     0.08900
H1550       H  0.52990522  0.19473612  0.92928956     0.08900
H1551       H  0.53203103  0.18753824  0.89380170     0.08900
H1552       H  0.51151229  0.17955629  0.91388139     0.05700
C1553       C  0.56083139  0.25515975  0.98415241    -0.20200
C1554       C  0.56810069  0.23857257  0.97055292    -0.06700
C1555       C  0.57657446  0.22322018  0.98580158     0.14100
C1556       C  0.57677038  0.22442121  0.01446547    -0.20200
C1557       C  0.56844435  0.24047836  0.02812148    -0.06700
C1558       C  0.56092368  0.25631674  0.01280559     0.14100
C1559       C  0.55283131  0.27432448  0.02666784    -0.23600
H1560       H  0.55443499  0.26692660  0.97229296     0.15400
H1561       H  0.58242714  0.21227856  0.02632824     0.15500
C1562       C  0.58440927  0.20511612  0.97192748    -0.23500
H1563       H  0.54814414  0.28554013  0.01160899     0.05700
H1564       H  0.56420689  0.28097992  0.03991509     0.08900
H1565       H  0.53997337  0.27041960  0.03932771     0.08900
H1566       H  0.59653007  0.20918720  0.95798360     0.08900
H1567       H  0.57263677  0.19790499  0.95997663     0.08900
H1568       H  0.59008986  0.19433072  0.98692049     0.05700
loop_ 
_geom_bond_atom_site_label_1 
_geom_bond_atom_site_label_2 
_geom_bond_distance 
_geom_bond_site_symmetry_2 
_ccdc_geom_bond_type 
C1            C2   1.407       .  A
C1            C6   1.411       .  A
C1           C30   1.479       .  S
C2            C3   1.400       .  A
C2            H7   1.084       .  S
C3            C4   1.398       .  A
C3         C1554   1.479       .  S
C4            C5   1.402       .  A
C4            H8   1.085       .  S
C5            C6   1.408       .  A
C5         C1538   1.484       .  S
C6            H9   1.083       .  S
N10          N11   1.320       .  A
N10          C14   1.355       .  A
N10         Cu18   2.099       .  S
N11          C12   1.339       .  A
N11         Cu17   2.058       .  S
C12          C13   1.380       .  A
C12          H15   1.082       .  S
C13          C14   1.393       .  A
C13          C79   1.477       .  S
C14          H16   1.082       .  S
Cu17         N20   2.059       .  S
Cu18         N28   2.102       .  S
Cu19         N21   2.089       .  S
Cu19         N27   2.093       .  S
N20          N21   1.320       .  A
N20          C24   1.339       .  A
N21          C22   1.353       .  A
C22          C23   1.391       .  A
C22          H25   1.082       .  S
C23          C24   1.381       .  A
C23         C155   1.478       .  S
C24          H26   1.082       .  S
N27          N28   1.327       .  A
N27          C31   1.345       .  A
N28          C29   1.350       .  A
C29          C30   1.385       .  A
C29          H32   1.082       .  S
C30          C31   1.383       .  A
C31          H33   1.082       .  S
C34          C35   1.413       .  A
C34          C39   1.409       .  A
C34          C63   1.483       .  S
C35          C36   1.409       .  A
C35          H40   1.083       .  S
C36          C37   1.400       .  A
C36        C1525   1.485       .  S
C37          C38   1.397       .  A
C37          H41   1.085       .  S
C38          C39   1.402       .  A
C38        C1557   1.480       .  S
C39          H42   1.084       .  S
N43          N44   1.321       .  A
N43          C47   1.357       .  A
N43         Cu51   2.109       .  S
N44          C45   1.339       .  A
N44         Cu50   2.060       .  S
C45          C46   1.380       .  A
C45          H48   1.082       .  S
C46          C47   1.394       .  A
C46         C112   1.480       .  S
C47          H49   1.082       .  S
Cu50         N53   2.061       .  S
Cu51         N61   2.112       .  S
Cu52         N54   2.088       .  S
Cu52         N60   2.091       .  S
N53          N54   1.319       .  A
N53          C57   1.340       .  A
N54          C55   1.353       .  A
C55          C56   1.390       .  A
C55          H58   1.082       .  S
C56          C57   1.382       .  A
C56         C188   1.478       .  S
C57          H59   1.082       .  S
N60          N61   1.327       .  A
N60          C64   1.345       .  A
N61          C62   1.352       .  A
C62          C63   1.388       .  A
C62          H65   1.082       .  S
C63          C64   1.382       .  A
C64          H66   1.082       .  S
C67          C68   1.412       .  A
C67          C72   1.409       .  A
C67          C96   1.481       .  S
C68          C69   1.409       .  A
C68          H73   1.083       .  S
C69          C70   1.401       .  A
C69        C1490   1.483       .  S
C70          C71   1.396       .  A
C70          H74   1.085       .  S
C71          C72   1.402       .  A
C71        C1506   1.480       .  S
C72          H75   1.084       .  S
N76          N77   1.321       .  A
N76          C80   1.356       .  A
N76         Cu84   2.104       .  S
N77          C78   1.339       .  A
N77         Cu83   2.057       .  S
C78          C79   1.379       .  A
C78          H81   1.082       .  S
C79          C80   1.393       .  A
C80          H82   1.082       .  S
Cu83         N86   2.058       .  S
Cu84         N94   2.107       .  S
Cu85         N87   2.090       .  S
Cu85         N93   2.094       .  S
N86          N87   1.320       .  A
N86          C90   1.340       .  A
N87          C88   1.353       .  A
C88          C89   1.391       .  A
C88          H91   1.082       .  S
C89          C90   1.381       .  A
C89         C212   1.478       .  S
C90          H92   1.082       .  S
N93          N94   1.328       .  A
N93          C97   1.347       .  A
N94          C95   1.351       .  A
C95          C96   1.386       .  A
C95          H98   1.082       .  S
C96          C97   1.383       .  A
C97          H99   1.082       .  S
C100        C101   1.409       .  A
C100        C105   1.413       .  A
C100        C129   1.483       .  S
C101        C102   1.402       .  A
C101        H106   1.084       .  S
C102        C103   1.398       .  A
C102       C1509   1.481       .  S
C103        C104   1.402       .  A
C103        H107   1.085       .  S
C104        C105   1.409       .  A
C104       C1477   1.485       .  S
C105        H108   1.083       .  S
N109        N110   1.321       .  A
N109        C113   1.356       .  A
N109       Cu117   2.106       .  S
N110        C111   1.339       .  A
N110       Cu116   2.059       .  S
C111        C112   1.380       .  A
C111        H114   1.082       .  S
C112        C113   1.394       .  A
C113        H115   1.082       .  S
Cu116       N119   2.059       .  S
Cu117       N127   2.110       .  S
Cu118       N120   2.094       .  S
Cu118       N126   2.097       .  S
N119        N120   1.320       .  A
N119        C123   1.339       .  A
N120        C121   1.353       .  A
C121        C122   1.392       .  A
C121        H124   1.082       .  S
C122        C123   1.381       .  A
C122        C245   1.479       .  S
C123        H125   1.082       .  S
N126        N127   1.328       .  A
N126        C130   1.347       .  A
N127        C128   1.352       .  A
C128        C129   1.387       .  A
C128        H131   1.082       .  S
C129        C130   1.383       .  A
C130        H132   1.082       .  S
C133        C134   1.408       .  A
C133        C138   1.407       .  A
C133        C162   1.475       .  S
C134        C135   1.404       .  A
C134        H139   1.084       .  S
C135        C136   1.402       .  A
C135       C1442   1.481       .  S
C136        C137   1.400       .  A
C136        H140   1.085       .  S
C137        C138   1.401       .  A
C137       C1458   1.480       .  S
C138        H141   1.084       .  S
N142        N143   1.320       .  A
N142        C146   1.353       .  A
N142       Cu150   2.083       .  S
N143        C144   1.337       .  A
N143       Cu149   2.059       .  S
C144        C145   1.380       .  A
C144        H147   1.082       .  S
C145        C146   1.389       .  A
C145        C202   1.472       .  S
C146        H148   1.082       .  S
Cu149       N152   2.060       .  S
Cu150       N160   2.086       .  S
Cu151       N153   2.089       .  S
Cu151       N159   2.091       .  S
N152        N153   1.320       .  A
N152        C156   1.340       .  A
N153        C154   1.353       .  A
C154        C155   1.390       .  A
C154        H157   1.082       .  S
C155        C156   1.382       .  A
C156        H158   1.082       .  S
N159        N160   1.327       .  A
N159        C163   1.346       .  A
N160        C161   1.347       .  A
C161        C162   1.382       .  A
C161        H164   1.082       .  S
C162        C163   1.382       .  A
C163        H165   1.082       .  S
C166        C167   1.408       .  A
C166        C171   1.411       .  A
C166        C195   1.479       .  S
C167        C168   1.401       .  A
C167        H172   1.084       .  S
C168        C169   1.397       .  A
C168       C1461   1.478       .  S
C169        C170   1.400       .  A
C169        H173   1.085       .  S
C170        C171   1.407       .  A
C170       C1426   1.481       .  S
C171        H174   1.083       .  S
N175        N176   1.320       .  A
N175        C179   1.356       .  A
N175       Cu183   2.105       .  S
N176        C177   1.337       .  A
N176       Cu182   2.056       .  S
C177        C178   1.380       .  A
C177        H180   1.082       .  S
C178        C179   1.394       .  A
C178        C235   1.479       .  S
C179        H181   1.082       .  S
Cu182       N185   2.058       .  S
Cu183       N193   2.109       .  S
Cu184       N186   2.087       .  S
Cu184       N192   2.090       .  S
N185        N186   1.319       .  A
N185        C189   1.339       .  A
N186        C187   1.353       .  A
C187        C188   1.391       .  A
C187        H190   1.082       .  S
C188        C189   1.382       .  A
C189        H191   1.082       .  S
N192        N193   1.328       .  A
N192        C196   1.345       .  A
N193        C194   1.351       .  A
C194        C195   1.386       .  A
C194        H197   1.082       .  S
C195        C196   1.380       .  A
C196        H198   1.082       .  S
N199        N200   1.320       .  A
N199        C203   1.354       .  A
N199       Cu207   2.091       .  S
N200        C201   1.336       .  A
N200       Cu206   2.053       .  S
C201        C202   1.378       .  A
C201        H204   1.082       .  S
C202        C203   1.390       .  A
C203        H205   1.082       .  S
Cu206       N209   2.056       .  S
Cu207       N217   2.095       .  S
Cu208       N210   2.088       .  S
Cu208       N216   2.091       .  S
N209        N210   1.319       .  A
N209        C213   1.339       .  A
N210        C211   1.353       .  A
C211        C212   1.391       .  A
C211        H214   1.082       .  S
C212        C213   1.382       .  A
C213        H215   1.082       .  S
N216        N217   1.327       .  A
N216        C220   1.345       .  A
N217        C218   1.349       .  A
C218        C219   1.385       .  A
C218        H221   1.082       .  S
C219        C220   1.382       .  A
C219        C223   1.478       .  S
C220        H222   1.082       .  S
C223        C224   1.409       .  A
C223        C228   1.408       .  A
C224        C225   1.404       .  A
C224        H229   1.083       .  S
C225        C226   1.401       .  A
C225       C1394   1.480       .  S
C226        C227   1.400       .  A
C226        H230   1.085       .  S
C227        C228   1.403       .  A
C227       C1410   1.484       .  S
C228        H231   1.084       .  S
N232        N233   1.321       .  A
N232        C236   1.357       .  A
N232       Cu240   2.105       .  S
N233        C234   1.338       .  A
N233       Cu239   2.060       .  S
C234        C235   1.379       .  A
C234        H237   1.082       .  S
C235        C236   1.393       .  A
C236        H238   1.082       .  S
Cu239       N242   2.060       .  S
Cu240       N250   2.108       .  S
Cu241       N243   2.087       .  S
Cu241       N249   2.090       .  S
N242        N243   1.319       .  A
N242        C246   1.340       .  A
N243        C244   1.353       .  A
C244        C245   1.391       .  A
C244        H247   1.082       .  S
C245        C246   1.383       .  A
C246        H248   1.082       .  S
N249        N250   1.327       .  A
N249        C253   1.345       .  A
N250        C251   1.352       .  A
C251        C252   1.387       .  A
C251        H254   1.082       .  S
C252        C253   1.382       .  A
C252        C256   1.481       .  S
C253        H255   1.082       .  S
C256        C257   1.411       .  A
C256        C261   1.408       .  A
C257        C258   1.408       .  A
C257        H262   1.083       .  S
C258        C259   1.401       .  A
C258       C1378   1.483       .  S
C259        C260   1.401       .  A
C259        H263   1.085       .  S
C260        C261   1.403       .  A
C260       C1413   1.487       .  S
C261        H264   1.083       .  S
N265        N266   1.319       .  A
N265        C269   1.356       .  A
N265       Cu273   2.100       .  S
N266        C267   1.337       .  A
N266       Cu272   2.047       .  S
C267        C268   1.378       .  A
C267        H270   1.082       .  S
C268        C269   1.393       .  A
C268        C334   1.476       .  S
C269        H271   1.082       .  S
Cu272       N275   2.047       .  S
Cu273       N283   2.105       .  S
Cu274       N276   2.089       .  S
Cu274       N282   2.094       .  S
N275        N276   1.318       .  A
N275        C279   1.336       .  A
N276        C277   1.355       .  A
C277        C278   1.393       .  A
C277        H280   1.082       .  S
C278        C279   1.379       .  A
C278        C485   1.476       .  S
C279        H281   1.081       .  S
N282        N283   1.329       .  A
N282        C286   1.345       .  A
N283        C284   1.350       .  A
C284        C285   1.384       .  A
C284        H287   1.082       .  S
C285        C286   1.381       .  A
C285        C289   1.477       .  S
C286        H288   1.082       .  S
C289        C290   1.410       .  A
C289        C294   1.408       .  A
C290        C291   1.406       .  A
C290        H295   1.083       .  S
C291        C292   1.401       .  A
C291       C1445   1.481       .  S
C292        C293   1.397       .  A
C292        H296   1.085       .  S
C293        C294   1.401       .  A
C293       C1362   1.480       .  S
C294        H297   1.084       .  S
N298        N299   1.321       .  A
N298        C302   1.354       .  A
N298       Cu306   2.096       .  S
N299        C300   1.339       .  A
N299       Cu305   2.063       .  S
C300        C301   1.381       .  A
C300        H303   1.082       .  S
C301        C302   1.391       .  A
C301        C367   1.477       .  S
C302        H304   1.082       .  S
Cu305       N308   2.065       .  S
Cu306       N316   2.099       .  S
Cu307       N309   2.089       .  S
Cu307       N315   2.091       .  S
N308        N309   1.320       .  A
N308        C312   1.340       .  A
N309        C310   1.353       .  A
C310        C311   1.390       .  A
C310        H313   1.082       .  S
C311        C312   1.383       .  A
C311        C509   1.479       .  S
C312        H314   1.082       .  S
N315        N316   1.327       .  A
N315        C319   1.346       .  A
N316        C317   1.349       .  A
C317        C318   1.385       .  A
C317        H320   1.082       .  S
C318        C319   1.382       .  A
C318        C322   1.479       .  S
C319        H321   1.082       .  S
C322        C323   1.410       .  A
C322        C327   1.410       .  A
C323        C324   1.404       .  A
C323        H328   1.084       .  S
C324        C325   1.397       .  A
C324       C1365   1.480       .  S
C325        C326   1.400       .  A
C325        H329   1.085       .  S
C326        C327   1.404       .  A
C326       C1429   1.480       .  S
C327        H330   1.084       .  S
N331        N332   1.320       .  A
N331        C335   1.355       .  A
N331       Cu339   2.098       .  S
N332        C333   1.338       .  A
N332       Cu338   2.056       .  S
C333        C334   1.379       .  A
C333        H336   1.082       .  S
C334        C335   1.392       .  A
C335        H337   1.082       .  S
Cu338       N341   2.055       .  S
Cu339       N349   2.101       .  S
Cu340       N342   2.091       .  S
Cu340       N348   2.094       .  S
N341        N342   1.320       .  A
N341        C345   1.339       .  A
N342        C343   1.353       .  A
C343        C344   1.391       .  A
C343        H346   1.082       .  S
C344        C345   1.381       .  A
C344        C410   1.477       .  S
C345        H347   1.082       .  S
N348        N349   1.327       .  A
N348        C352   1.346       .  A
N349        C350   1.350       .  A
C350        C351   1.385       .  A
C350        H353   1.082       .  S
C351        C352   1.383       .  A
C351        C355   1.480       .  S
C352        H354   1.082       .  S
C355        C356   1.412       .  A
C355        C360   1.408       .  A
C356        C357   1.408       .  A
C356        H361   1.083       .  S
C357        C358   1.402       .  A
C357       C1330   1.485       .  S
C358        C359   1.400       .  A
C358        H362   1.085       .  S
C359        C360   1.401       .  A
C359       C1346   1.482       .  S
C360        H363   1.084       .  S
N364        N365   1.321       .  A
N364        C368   1.355       .  A
N364       Cu372   2.100       .  S
N365        C366   1.339       .  A
N365       Cu371   2.062       .  S
C366        C367   1.379       .  A
C366        H369   1.082       .  S
C367        C368   1.392       .  A
C368        H370   1.082       .  S
Cu371       N374   2.063       .  S
Cu372       N382   2.103       .  S
Cu373       N375   2.087       .  S
Cu373       N381   2.089       .  S
N374        N375   1.320       .  A
N374        C378   1.341       .  A
N375        C376   1.351       .  A
C376        C377   1.389       .  A
C376        H379   1.082       .  S
C377        C378   1.383       .  A
C377        C443   1.478       .  S
C378        H380   1.082       .  S
N381        N382   1.327       .  A
N381        C385   1.347       .  A
N382        C383   1.350       .  A
C383        C384   1.385       .  A
C383        H386   1.082       .  S
C384        C385   1.382       .  A
C384        C388   1.478       .  S
C385        H387   1.082       .  S
C388        C389   1.409       .  A
C388        C393   1.410       .  A
C389        C390   1.404       .  A
C389        H394   1.084       .  S
C390        C391   1.398       .  A
C390       C1349   1.482       .  S
C391        C392   1.400       .  A
C391        H395   1.085       .  S
C392        C393   1.406       .  A
C392       C1314   1.481       .  S
C393        H396   1.083       .  S
N397        N398   1.320       .  A
N397        C401   1.353       .  A
N397       Cu405   2.093       .  S
N398        C399   1.339       .  A
N398       Cu404   2.059       .  S
C399        C400   1.380       .  A
C399        H402   1.082       .  S
C400        C401   1.390       .  A
C400        C475   1.474       .  S
C401        H403   1.082       .  S
Cu404       N407   2.060       .  S
Cu405       N415   2.096       .  S
Cu406       N408   2.083       .  S
Cu406       N414   2.086       .  S
N407        N408   1.320       .  A
N407        C411   1.339       .  A
N408        C409   1.352       .  A
C409        C410   1.390       .  A
C409        H412   1.082       .  S
C410        C411   1.382       .  A
C411        H413   1.081       .  S
N414        N415   1.327       .  A
N414        C418   1.344       .  A
N415        C416   1.349       .  A
C416        C417   1.384       .  A
C416        H419   1.082       .  S
C417        C418   1.382       .  A
C417        C421   1.477       .  S
C418        H420   1.082       .  S
C421        C422   1.406       .  A
C421        C426   1.410       .  A
C422        C423   1.400       .  A
C422        H427   1.084       .  S
C423        C424   1.399       .  A
C423       C1301   1.479       .  S
C424        C425   1.403       .  A
C424        H428   1.085       .  S
C425        C426   1.406       .  A
C425       C1493   1.482       .  S
C426        H429   1.083       .  S
N430        N431   1.321       .  A
N430        C434   1.355       .  A
N430       Cu438   2.095       .  S
N431        C432   1.338       .  A
N431       Cu437   2.061       .  S
C432        C433   1.380       .  A
C432        H435   1.082       .  S
C433        C434   1.391       .  A
C433        C499   1.477       .  S
C434        H436   1.082       .  S
Cu437       N440   2.061       .  S
Cu438       N448   2.098       .  S
Cu439       N441   2.091       .  S
Cu439       N447   2.094       .  S
N440        N441   1.320       .  A
N440        C444   1.341       .  A
N441        C442   1.352       .  A
C442        C443   1.390       .  A
C442        H445   1.082       .  S
C443        C444   1.382       .  A
C444        H446   1.082       .  S
N447        N448   1.327       .  A
N447        C451   1.346       .  A
N448        C449   1.349       .  A
C449        C450   1.384       .  A
C449        H452   1.082       .  S
C450        C451   1.384       .  A
C450        C454   1.480       .  S
C451        H453   1.082       .  S
C454        C455   1.412       .  A
C454        C459   1.408       .  A
C455        C456   1.408       .  A
C455        H460   1.083       .  S
C456        C457   1.400       .  A
C456       C1474   1.484       .  S
C457        C458   1.398       .  A
C457        H461   1.085       .  S
C458        C459   1.401       .  A
C458       C1298   1.478       .  S
C459        H462   1.084       .  S
C463        C464   1.411       .  A
C463        C468   1.406       .  A
C463        C492   1.477       .  S
C464        C465   1.408       .  A
C464        H469   1.083       .  S
C465        C466   1.402       .  A
C465       C1266   1.485       .  S
C466        C467   1.399       .  A
C466        H470   1.085       .  S
C467        C468   1.400       .  A
C467       C1282   1.479       .  S
C468        H471   1.084       .  S
N472        N473   1.320       .  A
N472        C476   1.354       .  A
N472       Cu480   2.092       .  S
N473        C474   1.339       .  A
N473       Cu479   2.055       .  S
C474        C475   1.379       .  A
C474        H477   1.082       .  S
C475        C476   1.390       .  A
C476        H478   1.082       .  S
Cu479       N482   2.054       .  S
Cu480       N490   2.096       .  S
Cu481       N483   2.087       .  S
Cu481       N489   2.091       .  S
N482        N483   1.320       .  A
N482        C486   1.336       .  A
N483        C484   1.354       .  A
C484        C485   1.391       .  A
C484        H487   1.082       .  S
C485        C486   1.380       .  A
C486        H488   1.081       .  S
N489        N490   1.327       .  A
N489        C493   1.345       .  A
N490        C491   1.349       .  A
C491        C492   1.383       .  A
C491        H494   1.082       .  S
C492        C493   1.382       .  A
C493        H495   1.082       .  S
N496        N497   1.320       .  A
N496        C500   1.356       .  A
N496       Cu504   2.102       .  S
N497        C498   1.337       .  A
N497       Cu503   2.054       .  S
C498        C499   1.379       .  A
C498        H501   1.082       .  S
C499        C500   1.393       .  A
C500        H502   1.082       .  S
Cu503       N506   2.056       .  S
Cu504       N514   2.106       .  S
Cu505       N507   2.093       .  S
Cu505       N513   2.096       .  S
N506        N507   1.319       .  A
N506        C510   1.339       .  A
N507        C508   1.354       .  A
C508        C509   1.392       .  A
C508        H511   1.082       .  S
C509        C510   1.381       .  A
C510        H512   1.082       .  S
N513        N514   1.328       .  A
N513        C517   1.346       .  A
N514        C515   1.351       .  A
C515        C516   1.386       .  A
C515        H518   1.082       .  S
C516        C517   1.382       .  A
C516        C520   1.481       .  S
C517        H519   1.082       .  S
C520        C521   1.409       .  A
C520        C525   1.412       .  A
C521        C522   1.402       .  A
C521        H526   1.084       .  S
C522        C523   1.398       .  A
C522       C1285   1.479       .  S
C523        C524   1.399       .  A
C523        H527   1.085       .  S
C524        C525   1.408       .  A
C524       C1250   1.483       .  S
C525        H528   1.083       .  S
C529        C530   1.411       .  A
C529        C534   1.407       .  A
C529        C558   1.478       .  S
C530        C531   1.409       .  A
C530        H535   1.083       .  S
C531        C532   1.401       .  A
C531       C1218   1.484       .  S
C532        C533   1.396       .  A
C532        H536   1.085       .  S
C533        C534   1.400       .  A
C533       C1234   1.477       .  S
C534        H537   1.084       .  S
N538        N539   1.321       .  A
N538        C542   1.355       .  A
N538       Cu546   2.102       .  S
N539        C540   1.339       .  A
N539       Cu545   2.060       .  S
C540        C541   1.379       .  A
C540        H543   1.082       .  S
C541        C542   1.393       .  A
C541        C607   1.477       .  S
C542        H544   1.082       .  S
Cu545       N548   2.061       .  S
Cu546       N556   2.105       .  S
Cu547       N549   2.085       .  S
Cu547       N555   2.088       .  S
N548        N549   1.319       .  A
N548        C552   1.339       .  A
N549        C550   1.353       .  A
C550        C551   1.390       .  A
C550        H553   1.082       .  S
C551        C552   1.383       .  A
C551        C683   1.478       .  S
C552        H554   1.082       .  S
N555        N556   1.327       .  A
N555        C559   1.345       .  A
N556        C557   1.351       .  A
C557        C558   1.386       .  A
C557        H560   1.082       .  S
C558        C559   1.381       .  A
C559        H561   1.082       .  S
C562        C563   1.411       .  A
C562        C567   1.407       .  A
C562        C591   1.477       .  S
C563        C564   1.407       .  A
C563        H568   1.083       .  S
C564        C565   1.401       .  A
C564       C1202   1.482       .  S
C565        C566   1.397       .  A
C565        H569   1.085       .  S
C566        C567   1.400       .  A
C566       C1237   1.477       .  S
C567        H570   1.084       .  S
N571        N572   1.321       .  A
N571        C575   1.355       .  A
N571       Cu579   2.100       .  S
N572        C573   1.338       .  A
N572       Cu578   2.055       .  S
C573        C574   1.379       .  A
C573        H576   1.082       .  S
C574        C575   1.392       .  A
C574        C640   1.476       .  S
C575        H577   1.082       .  S
Cu578       N581   2.056       .  S
Cu579       N589   2.103       .  S
Cu580       N582   2.080       .  S
Cu580       N588   2.084       .  S
N581        N582   1.319       .  A
N581        C585   1.339       .  A
N582        C583   1.351       .  A
C583        C584   1.389       .  A
C583        H586   1.082       .  S
C584        C585   1.381       .  A
C584        C716   1.474       .  S
C585        H587   1.082       .  S
N588        N589   1.327       .  A
N588        C592   1.344       .  A
N589        C590   1.350       .  A
C590        C591   1.385       .  A
C590        H593   1.082       .  S
C591        C592   1.380       .  A
C592        H594   1.082       .  S
C595        C596   1.407       .  A
C595        C600   1.412       .  A
C595        C624   1.480       .  S
C596        C597   1.401       .  A
C596        H601   1.084       .  S
C597        C598   1.399       .  A
C597       C1189   1.479       .  S
C598        C599   1.400       .  A
C598        H602   1.085       .  S
C599        C600   1.408       .  A
C599       C1333   1.484       .  S
C600        H603   1.083       .  S
N604        N605   1.320       .  A
N604        C608   1.355       .  A
N604       Cu612   2.100       .  S
N605        C606   1.339       .  A
N605       Cu611   2.059       .  S
C606        C607   1.380       .  A
C606        H609   1.082       .  S
C607        C608   1.392       .  A
C608        H610   1.082       .  S
Cu611       N614   2.058       .  S
Cu612       N622   2.103       .  S
Cu613       N615   2.090       .  S
Cu613       N621   2.094       .  S
N614        N615   1.320       .  A
N614        C618   1.339       .  A
N615        C616   1.353       .  A
C616        C617   1.391       .  A
C616        H619   1.082       .  S
C617        C618   1.381       .  A
C617        C740   1.477       .  S
C618        H620   1.082       .  S
N621        N622   1.327       .  A
N621        C625   1.346       .  A
N622        C623   1.350       .  A
C623        C624   1.385       .  A
C623        H626   1.082       .  S
C624        C625   1.383       .  A
C625        H627   1.082       .  S
C628        C629   1.411       .  A
C628        C633   1.407       .  A
C628        C657   1.477       .  S
C629        C630   1.407       .  A
C629        H634   1.083       .  S
C630        C631   1.401       .  A
C630       C1317   1.481       .  S
C631        C632   1.398       .  A
C631        H635   1.085       .  S
C632        C633   1.400       .  A
C632       C1186   1.477       .  S
C633        H636   1.084       .  S
N637        N638   1.321       .  A
N637        C641   1.354       .  A
N637       Cu645   2.098       .  S
N638        C639   1.339       .  A
N638       Cu644   2.062       .  S
C639        C640   1.380       .  A
C639        H642   1.082       .  S
C640        C641   1.391       .  A
C641        H643   1.082       .  S
Cu644       N647   2.063       .  S
Cu645       N655   2.100       .  S
Cu646       N648   2.081       .  S
Cu646       N654   2.083       .  S
N647        N648   1.320       .  A
N647        C651   1.340       .  A
N648        C649   1.351       .  A
C649        C650   1.389       .  A
C649        H652   1.082       .  S
C650        C651   1.382       .  A
C650        C773   1.476       .  S
C651        H653   1.082       .  S
N654        N655   1.327       .  A
N654        C658   1.344       .  A
N655        C656   1.350       .  A
C656        C657   1.386       .  A
C656        H659   1.082       .  S
C657        C658   1.380       .  A
C658        H660   1.082       .  S
C661        C662   1.410       .  A
C661        C666   1.404       .  A
C661        C690   1.475       .  S
C662        C663   1.407       .  A
C662        H667   1.083       .  S
C663        C664   1.402       .  A
C663       C1269   1.484       .  S
C664        C665   1.400       .  A
C664        H668   1.085       .  S
C665        C666   1.399       .  A
C665       C1170   1.480       .  S
C666        H669   1.084       .  S
N670        N671   1.320       .  A
N670        C674   1.353       .  A
N670       Cu678   2.086       .  S
N671        C672   1.338       .  A
N671       Cu677   2.056       .  S
C672        C673   1.380       .  A
C672        H675   1.082       .  S
C673        C674   1.389       .  A
C673        C730   1.472       .  S
C674        H676   1.082       .  S
Cu677       N680   2.056       .  S
Cu678       N688   2.089       .  S
Cu679       N681   2.092       .  S
Cu679       N687   2.095       .  S
N680        N681   1.320       .  A
N680        C684   1.338       .  A
N681        C682   1.354       .  A
C682        C683   1.392       .  A
C682        H685   1.082       .  S
C683        C684   1.381       .  A
C684        H686   1.081       .  S
N687        N688   1.328       .  A
N687        C691   1.345       .  A
N688        C689   1.348       .  A
C689        C690   1.382       .  A
C689        H692   1.082       .  S
C690        C691   1.383       .  A
C691        H693   1.082       .  S
C694        C695   1.412       .  A
C694        C699   1.406       .  A
C694        C723   1.477       .  S
C695        C696   1.408       .  A
C695        H700   1.083       .  S
C696        C697   1.399       .  A
C696       C1253   1.483       .  S
C697        C698   1.399       .  A
C697        H701   1.085       .  S
C698        C699   1.400       .  A
C698       C1173   1.477       .  S
C699        H702   1.084       .  S
N703        N704   1.320       .  A
N703        C707   1.354       .  A
N703       Cu711   2.097       .  S
N704        C705   1.339       .  A
N704       Cu710   2.055       .  S
C705        C706   1.379       .  A
C705        H708   1.082       .  S
C706        C707   1.391       .  A
C706        C763   1.475       .  S
C707        H709   1.082       .  S
Cu710       N713   2.054       .  S
Cu711       N721   2.100       .  S
Cu712       N714   2.085       .  S
Cu712       N720   2.088       .  S
N713        N714   1.320       .  A
N713        C717   1.338       .  A
N714        C715   1.352       .  A
C715        C716   1.390       .  A
C715        H718   1.082       .  S
C716        C717   1.380       .  A
C717        H719   1.082       .  S
N720        N721   1.327       .  A
N720        C724   1.346       .  A
N721        C722   1.349       .  A
C722        C723   1.384       .  A
C722        H725   1.082       .  S
C723        C724   1.382       .  A
C724        H726   1.082       .  S
N727        N728   1.321       .  A
N727        C731   1.353       .  A
N727       Cu735   2.091       .  S
N728        C729   1.338       .  A
N728       Cu734   2.059       .  S
C729        C730   1.379       .  A
C729        H732   1.082       .  S
C730        C731   1.389       .  A
C731        H733   1.082       .  S
Cu734       N737   2.059       .  S
Cu735       N745   2.094       .  S
Cu736       N738   2.083       .  S
Cu736       N744   2.085       .  S
N737        N738   1.320       .  A
N737        C741   1.340       .  A
N738        C739   1.352       .  A
C739        C740   1.389       .  A
C739        H742   1.082       .  S
C740        C741   1.382       .  A
C741        H743   1.082       .  S
N744        N745   1.326       .  A
N744        C748   1.344       .  A
N745        C746   1.349       .  A
C746        C747   1.385       .  A
C746        H749   1.082       .  S
C747        C748   1.381       .  A
C747        C751   1.477       .  S
C748        H750   1.082       .  S
C751        C752   1.410       .  A
C751        C756   1.408       .  A
C752        C753   1.405       .  A
C752        H757   1.083       .  S
C753        C754   1.400       .  A
C753       C1138   1.480       .  S
C754        C755   1.398       .  A
C754        H758   1.085       .  S
C755        C756   1.401       .  A
C755       C1154   1.482       .  S
C756        H759   1.084       .  S
N760        N761   1.321       .  A
N760        C764   1.354       .  A
N760       Cu768   2.100       .  S
N761        C762   1.340       .  A
N761       Cu767   2.060       .  S
C762        C763   1.380       .  A
C762        H765   1.082       .  S
C763        C764   1.391       .  A
C764        H766   1.082       .  S
Cu767       N770   2.060       .  S
Cu768       N778   2.103       .  S
Cu769       N771   2.085       .  S
Cu769       N777   2.087       .  S
N770        N771   1.320       .  A
N770        C774   1.340       .  A
N771        C772   1.351       .  A
C772        C773   1.389       .  A
C772        H775   1.082       .  S
C773        C774   1.382       .  A
C774        H776   1.082       .  S
N777        N778   1.327       .  A
N777        C781   1.345       .  A
N778        C779   1.351       .  A
C779        C780   1.386       .  A
C779        H782   1.082       .  S
C780        C781   1.381       .  A
C780        C784   1.479       .  S
C781        H783   1.082       .  S
C784        C785   1.408       .  A
C784        C789   1.411       .  A
C785        C786   1.403       .  A
C785        H790   1.083       .  S
C786        C787   1.399       .  A
C786       C1157   1.484       .  S
C787        C788   1.400       .  A
C787        H791   1.085       .  S
C788        C789   1.407       .  A
C788       C1122   1.482       .  S
C789        H792   1.083       .  S
C793        C794   1.411       .  A
C793        C798   1.407       .  A
C793        C822   1.479       .  S
C794        C795   1.408       .  A
C794        H799   1.083       .  S
C795        C796   1.401       .  A
C795       C1541   1.484       .  S
C796        C797   1.399       .  A
C796        H800   1.085       .  S
C797        C798   1.401       .  A
C797       C1106   1.481       .  S
C798        H801   1.084       .  S
N802        N803   1.320       .  A
N802        C806   1.355       .  A
N802       Cu810   2.097       .  S
N803        C804   1.337       .  A
N803       Cu809   2.053       .  S
C804        C805   1.379       .  A
C804        H807   1.082       .  S
C805        C806   1.392       .  A
C805        C871   1.474       .  S
C806        H808   1.082       .  S
Cu809       N812   2.054       .  S
Cu810       N820   2.101       .  S
Cu811       N813   2.087       .  S
Cu811       N819   2.090       .  S
N812        N813   1.319       .  A
N812        C816   1.339       .  A
N813        C814   1.352       .  A
C814        C815   1.391       .  A
C814        H817   1.082       .  S
C815        C816   1.380       .  A
C815        C947   1.476       .  S
C816        H818   1.082       .  S
N819        N820   1.327       .  A
N819        C823   1.345       .  A
N820        C821   1.350       .  A
C821        C822   1.385       .  A
C821        H824   1.082       .  S
C822        C823   1.382       .  A
C823        H825   1.082       .  S
C826        C827   1.408       .  A
C826        C831   1.412       .  A
C826        C855   1.481       .  S
C827        C828   1.401       .  A
C827        H832   1.084       .  S
C828        C829   1.399       .  A
C828       C1109   1.481       .  S
C829        C830   1.401       .  A
C829        H833   1.085       .  S
C830        C831   1.408       .  A
C830       C1522   1.484       .  S
C831        H834   1.083       .  S
N835        N836   1.321       .  A
N835        C839   1.357       .  A
N835       Cu843   2.108       .  S
N836        C837   1.337       .  A
N836       Cu842   2.056       .  S
C837        C838   1.379       .  A
C837        H840   1.082       .  S
C838        C839   1.395       .  A
C838        C904   1.480       .  S
C839        H841   1.082       .  S
Cu842       N845   2.058       .  S
Cu843       N853   2.111       .  S
Cu844       N846   2.083       .  S
Cu844       N852   2.086       .  S
N845        N846   1.319       .  A
N845        C849   1.340       .  A
N846        C847   1.351       .  A
C847        C848   1.390       .  A
C847        H850   1.082       .  S
C848        C849   1.382       .  A
C848        C980   1.476       .  S
C849        H851   1.082       .  S
N852        N853   1.328       .  A
N852        C856   1.344       .  A
N853        C854   1.352       .  A
C854        C855   1.387       .  A
C854        H857   1.082       .  S
C855        C856   1.381       .  A
C856        H858   1.082       .  S
C859        C860   1.408       .  A
C859        C864   1.405       .  A
C859        C888   1.473       .  S
C860        C861   1.405       .  A
C860        H865   1.083       .  S
C861        C862   1.402       .  A
C861       C1141   1.480       .  S
C862        C863   1.400       .  A
C862        H866   1.085       .  S
C863        C864   1.399       .  A
C863       C1090   1.480       .  S
C864        H867   1.084       .  S
N868        N869   1.320       .  A
N868        C872   1.354       .  A
N868       Cu876   2.092       .  S
N869        C870   1.338       .  A
N869       Cu875   2.059       .  S
C870        C871   1.380       .  A
C870        H873   1.082       .  S
C871        C872   1.391       .  A
C872        H874   1.082       .  S
Cu875       N878   2.059       .  S
Cu876       N886   2.095       .  S
Cu877       N879   2.077       .  S
Cu877       N885   2.080       .  S
N878        N879   1.319       .  A
N878        C882   1.338       .  A
N879        C880   1.352       .  A
C880        C881   1.389       .  A
C880        H883   1.082       .  S
C881        C882   1.382       .  A
C881       C1013   1.475       .  S
C882        H884   1.082       .  S
N885        N886   1.327       .  A
N885        C889   1.343       .  A
N886        C887   1.349       .  A
C887        C888   1.383       .  A
C887        H890   1.082       .  S
C888        C889   1.380       .  A
C889        H891   1.082       .  S
C892        C893   1.411       .  A
C892        C897   1.409       .  A
C892        C921   1.479       .  S
C893        C894   1.406       .  A
C893        H898   1.083       .  S
C894        C895   1.398       .  A
C894       C1125   1.481       .  S
C895        C896   1.397       .  A
C895        H899   1.085       .  S
C896        C897   1.402       .  A
C896       C1093   1.480       .  S
C897        H900   1.084       .  S
N901        N902   1.321       .  A
N901        C905   1.356       .  A
N901       Cu909   2.102       .  S
N902        C903   1.339       .  A
N902       Cu908   2.063       .  S
C903        C904   1.381       .  A
C903        H906   1.082       .  S
C904        C905   1.393       .  A
C905        H907   1.082       .  S
Cu908       N911   2.064       .  S
Cu909       N919   2.105       .  S
Cu910       N912   2.079       .  S
Cu910       N918   2.082       .  S
N911        N912   1.320       .  A
N911        C915   1.339       .  A
N912        C913   1.352       .  A
C913        C914   1.388       .  A
C913        H916   1.082       .  S
C914        C915   1.382       .  A
C914       C1046   1.475       .  S
C915        H917   1.082       .  S
N918        N919   1.327       .  A
N918        C922   1.344       .  A
N919        C920   1.350       .  A
C920        C921   1.386       .  A
C920        H923   1.082       .  S
C921        C922   1.381       .  A
C922        H924   1.082       .  S
C925        C926   1.409       .  A
C925        C930   1.409       .  A
C925        C954   1.478       .  S
C926        C927   1.406       .  A
C926        H931   1.083       .  S
C927        C928   1.401       .  A
C927       C1221   1.481       .  S
C928        C929   1.399       .  A
C928        H932   1.085       .  S
C929        C930   1.402       .  A
C929       C1074   1.481       .  S
C930        H933   1.084       .  S
N934        N935   1.321       .  A
N934        C938   1.354       .  A
N934       Cu942   2.098       .  S
N935        C936   1.338       .  A
N935       Cu941   2.058       .  S
C936        C937   1.379       .  A
C936        H939   1.082       .  S
C937        C938   1.390       .  A
C937       C1003   1.474       .  S
C938        H940   1.082       .  S
Cu941       N944   2.058       .  S
Cu942       N952   2.101       .  S
Cu943       N945   2.082       .  S
Cu943       N951   2.085       .  S
N944        N945   1.319       .  A
N944        C948   1.340       .  A
N945        C946   1.351       .  A
C946        C947   1.389       .  A
C946        H949   1.082       .  S
C947        C948   1.382       .  A
C948        H950   1.082       .  S
N951        N952   1.327       .  A
N951        C955   1.344       .  A
N952        C953   1.350       .  A
C953        C954   1.386       .  A
C953        H956   1.082       .  S
C954        C955   1.380       .  A
C955        H957   1.082       .  S
C958        C959   1.406       .  A
C958        C963   1.410       .  A
C958        C987   1.477       .  S
C959        C960   1.401       .  A
C959        H964   1.084       .  S
C960        C961   1.399       .  A
C960       C1077   1.482       .  S
C961        C962   1.402       .  A
C961        H965   1.085       .  S
C962        C963   1.407       .  A
C962       C1205   1.481       .  S
C963        H966   1.083       .  S
N967        N968   1.321       .  A
N967        C971   1.355       .  A
N967       Cu975   2.094       .  S
N968        C969   1.337       .  A
N968       Cu974   2.057       .  S
C969        C970   1.379       .  A
C969        H972   1.082       .  S
C970        C971   1.391       .  A
C970       C1036   1.474       .  S
C971        H973   1.082       .  S
Cu974       N977   2.058       .  S
Cu975       N985   2.097       .  S
Cu976       N978   2.084       .  S
Cu976       N984   2.087       .  S
N977        N978   1.319       .  A
N977        C981   1.340       .  A
N978        C979   1.351       .  A
C979        C980   1.390       .  A
C979        H982   1.082       .  S
C980        C981   1.382       .  A
C981        H983   1.082       .  S
N984        N985   1.327       .  A
N984        C988   1.344       .  A
N985        C986   1.350       .  A
C986        C987   1.385       .  A
C986        H989   1.082       .  S
C987        C988   1.381       .  A
C988        H990   1.082       .  S
C991        C992   1.406       .  A
C991        C996   1.411       .  A
C991       C1020   1.475       .  S
C992        C993   1.399       .  A
C992        H997   1.084       .  S
C993        C994   1.396       .  A
C993       C1061   1.475       .  S
C994        C995   1.401       .  A
C994        H998   1.085       .  S
C995        C996   1.408       .  A
C995       C1397   1.484       .  S
C996        H999   1.083       .  S
N1000      N1001   1.320       .  A
N1000      C1004   1.354       .  A
N1000     Cu1008   2.092       .  S
N1001      C1002   1.338       .  A
N1001     Cu1007   2.052       .  S
C1002      C1003   1.379       .  A
C1002      H1005   1.082       .  S
C1003      C1004   1.391       .  A
C1004      H1006   1.082       .  S
Cu1007     N1010   2.052       .  S
Cu1008     N1018   2.096       .  S
Cu1009     N1011   2.087       .  S
Cu1009     N1017   2.091       .  S
N1010      N1011   1.319       .  A
N1010      C1014   1.337       .  A
N1011      C1012   1.353       .  A
C1012      C1013   1.391       .  A
C1012      H1015   1.082       .  S
C1013      C1014   1.379       .  A
C1014      H1016   1.082       .  S
N1017      N1018   1.328       .  A
N1017      C1021   1.345       .  A
N1018      C1019   1.349       .  A
C1019      C1020   1.383       .  A
C1019      H1022   1.082       .  S
C1020      C1021   1.381       .  A
C1021      H1023   1.082       .  S
C1024      C1025   1.406       .  A
C1024      C1029   1.412       .  A
C1024      C1053   1.478       .  S
C1025      C1026   1.399       .  A
C1025      H1030   1.084       .  S
C1026      C1027   1.396       .  A
C1026      C1058   1.475       .  S
C1027      C1028   1.400       .  A
C1027      H1031   1.085       .  S
C1028      C1029   1.408       .  A
C1028      C1381   1.482       .  S
C1029      H1032   1.083       .  S
N1033      N1034   1.319       .  A
N1033      C1037   1.354       .  A
N1033     Cu1041   2.096       .  S
N1034      C1035   1.337       .  A
N1034     Cu1040   2.049       .  S
C1035      C1036   1.379       .  A
C1035      H1038   1.082       .  S
C1036      C1037   1.392       .  A
C1037      H1039   1.082       .  S
Cu1040     N1043   2.050       .  S
Cu1041     N1051   2.100       .  S
Cu1042     N1044   2.089       .  S
Cu1042     N1050   2.092       .  S
N1043      N1044   1.319       .  A
N1043      C1047   1.337       .  A
N1044      C1045   1.353       .  A
C1045      C1046   1.392       .  A
C1045      H1048   1.082       .  S
C1046      C1047   1.379       .  A
C1047      H1049   1.082       .  S
N1050      N1051   1.328       .  A
N1050      C1054   1.345       .  A
N1051      C1052   1.350       .  A
C1052      C1053   1.384       .  A
C1052      H1055   1.082       .  S
C1053      C1054   1.381       .  A
C1054      H1056   1.082       .  S
C1057      C1058   1.400       .  A
C1057      C1062   1.400       .  A
C1057      H1064   1.085       .  S
C1058      C1059   1.411       .  A
C1059      C1060   1.405       .  A
C1059      C1066   1.506       .  S
C1060      C1061   1.403       .  A
C1060      H1065   1.084       .  S
C1061      C1062   1.414       .  A
C1062      C1063   1.508       .  S
C1063      H1067   1.110       .  S
C1063      H1068   1.108       .  S
C1063      H1069   1.110       .  S
C1066      H1070   1.110       .  S
C1066      H1071   1.111       .  S
C1066      H1072   1.111       .  S
C1073      C1074   1.402       .  A
C1073      C1078   1.405   1_556  A
C1073      H1080   1.084       .  S
C1074      C1075   1.415       .  A
C1075      C1076   1.403   1_556  A
C1075      C1082   1.507       .  S
C1076      C1077   1.403       .  A
C1076      H1081   1.084       .  S
C1077      C1078   1.414       .  A
C1078      C1079   1.507       .  S
C1079      H1083   1.111       .  S
C1079      H1084   1.111       .  S
C1079      H1085   1.109       .  S
C1082      H1086   1.110       .  S
C1082      H1087   1.109       .  S
C1082      H1088   1.110       .  S
C1089      C1090   1.402       .  A
C1089      C1094   1.403       .  A
C1089      H1096   1.084       .  S
C1090      C1091   1.414       .  A
C1091      C1092   1.405       .  A
C1091      C1098   1.507       .  S
C1092      C1093   1.402       .  A
C1092      H1097   1.084       .  S
C1093      C1094   1.414       .  A
C1094      C1095   1.508       .  S
C1095      H1099   1.111       .  S
C1095      H1100   1.108       .  S
C1095      H1101   1.110       .  S
C1098      H1102   1.110       .  S
C1098      H1103   1.109       .  S
C1098      H1104   1.111       .  S
C1105      C1106   1.402       .  A
C1105      C1110   1.402   1_556  A
C1105      H1112   1.085       .  S
C1106      C1107   1.413       .  A
C1107      C1108   1.406   1_556  A
C1107      C1114   1.506       .  S
C1108      C1109   1.404       .  A
C1108      H1113   1.084       .  S
C1109      C1110   1.415       .  A
C1110      C1111   1.508       .  S
C1111      H1115   1.110       .  S
C1111      H1116   1.110       .  S
C1111      H1117   1.108       .  S
C1114      H1118   1.110       .  S
C1114      H1119   1.109       .  S
C1114      H1120   1.111       .  S
C1121      C1122   1.403       .  A
C1121      C1126   1.405   1_565  A
C1121      H1128   1.084       .  S
C1122      C1123   1.413       .  A
C1123      C1124   1.407   1_565  A
C1123      C1130   1.506       .  S
C1124      C1125   1.403       .  A
C1124      H1129   1.084       .  S
C1125      C1126   1.412       .  A
C1126      C1127   1.506       .  S
C1127      H1131   1.111       .  S
C1127      H1132   1.110       .  S
C1127      H1133   1.110       .  S
C1130      H1134   1.110       .  S
C1130      H1135   1.110       .  S
C1130      H1136   1.111       .  S
C1137      C1138   1.403       .  A
C1137      C1142   1.406   1_565  A
C1137      H1144   1.084       .  S
C1138      C1139   1.412       .  A
C1139      C1140   1.404   1_565  A
C1139      C1146   1.506       .  S
C1140      C1141   1.402       .  A
C1140      H1145   1.084       .  S
C1141      C1142   1.413       .  A
C1142      C1143   1.506       .  S
C1143      H1147   1.111       .  S
C1143      H1148   1.110       .  S
C1143      H1149   1.110       .  S
C1146      H1150   1.109       .  S
C1146      H1151   1.110       .  S
C1146      H1152   1.111       .  S
C1153      C1154   1.403       .  A
C1153      C1158   1.407       .  A
C1153      H1160   1.084       .  S
C1154      C1155   1.414       .  A
C1155      C1156   1.402       .  A
C1155      C1162   1.508       .  S
C1156      C1157   1.403       .  A
C1156      H1161   1.084       .  S
C1157      C1158   1.415       .  A
C1158      C1159   1.506       .  S
C1159      H1163   1.111       .  S
C1159      H1164   1.110       .  S
C1159      H1165   1.109       .  S
C1162      H1166   1.108       .  S
C1162      H1167   1.110       .  S
C1162      H1168   1.111       .  S
C1169      C1170   1.402       .  A
C1169      C1174   1.399   1_556  A
C1169      H1176   1.085       .  S
C1170      C1171   1.415       .  A
C1171      C1172   1.406   1_556  A
C1171      C1178   1.507       .  S
C1172      C1173   1.403       .  A
C1172      H1177   1.084       .  S
C1173      C1174   1.414       .  A
C1174      C1175   1.508       .  S
C1175      H1179   1.110       .  S
C1175      H1180   1.110       .  S
C1175      H1181   1.108       .  S
C1178      H1182   1.110       .  S
C1178      H1183   1.109       .  S
C1178      H1184   1.111       .  S
C1185      C1186   1.400       .  A
C1185      C1190   1.399       .  A
C1185      H1192   1.085       .  S
C1186      C1187   1.411       .  A
C1187      C1188   1.407       .  A
C1187      C1194   1.505       .  S
C1188      C1189   1.405       .  A
C1188      H1193   1.084       .  S
C1189      C1190   1.414       .  A
C1190      C1191   1.508       .  S
C1191      H1195   1.110       .  S
C1191      H1196   1.110       .  S
C1191      H1197   1.108       .  S
C1194      H1198   1.110       .  S
C1194      H1199   1.110       .  S
C1194      H1200   1.111       .  S
C1201      C1202   1.403       .  A
C1201      C1206   1.405       .  A
C1201      H1208   1.084       .  S
C1202      C1203   1.413       .  A
C1203      C1204   1.407       .  A
C1203      C1210   1.506       .  S
C1204      C1205   1.403       .  A
C1204      H1209   1.084       .  S
C1205      C1206   1.412       .  A
C1206      C1207   1.506       .  S
C1207      H1211   1.111       .  S
C1207      H1212   1.110       .  S
C1207      H1213   1.110       .  S
C1210      H1214   1.110       .  S
C1210      H1215   1.111       .  S
C1210      H1216   1.111       .  S
C1217      C1218   1.403       .  A
C1217      C1222   1.402       .  A
C1217      H1224   1.085       .  S
C1218      C1219   1.414       .  A
C1219      C1220   1.408       .  A
C1219      C1226   1.506       .  S
C1220      C1221   1.404       .  A
C1220      H1225   1.084       .  S
C1221      C1222   1.414       .  A
C1222      C1223   1.507       .  S
C1223      H1227   1.110       .  S
C1223      H1228   1.110       .  S
C1223      H1229   1.109       .  S
C1226      H1230   1.110       .  S
C1226      H1231   1.110       .  S
C1226      H1232   1.111       .  S
C1233      C1234   1.402       .  A
C1233      C1238   1.405   1_556  A
C1233      H1240   1.084       .  S
C1234      C1235   1.412       .  A
C1235      C1236   1.404   1_556  A
C1235      C1242   1.506       .  S
C1236      C1237   1.401       .  A
C1236      H1241   1.084       .  S
C1237      C1238   1.412       .  A
C1238      C1239   1.506       .  S
C1239      H1243   1.111       .  S
C1239      H1244   1.110       .  S
C1239      H1245   1.110       .  S
C1242      H1246   1.110       .  S
C1242      H1247   1.110       .  S
C1242      H1248   1.111       .  S
C1249      C1250   1.402       .  A
C1249      C1254   1.405       .  A
C1249      H1256   1.085       .  S
C1250      C1251   1.412       .  A
C1251      C1252   1.407       .  A
C1251      C1258   1.506       .  S
C1252      C1253   1.404       .  A
C1252      H1257   1.084       .  S
C1253      C1254   1.416       .  A
C1254      C1255   1.507       .  S
C1255      H1259   1.110       .  S
C1255      H1260   1.111       .  S
C1255      H1261   1.108       .  S
C1258      H1262   1.110       .  S
C1258      H1263   1.110       .  S
C1258      H1264   1.111       .  S
C1265      C1266   1.404       .  A
C1265      C1270   1.404       .  A
C1265      H1272   1.084       .  S
C1266      C1267   1.414       .  A
C1267      C1268   1.408       .  A
C1267      C1274   1.506       .  S
C1268      C1269   1.404       .  A
C1268      H1273   1.084       .  S
C1269      C1270   1.415       .  A
C1270      C1271   1.507       .  S
C1271      H1275   1.110       .  S
C1271      H1276   1.110       .  S
C1271      H1277   1.109       .  S
C1274      H1278   1.110       .  S
C1274      H1279   1.110       .  S
C1274      H1280   1.111       .  S
C1281      C1282   1.404       .  A
C1281      C1286   1.407   1_556  A
C1281      H1288   1.084       .  S
C1282      C1283   1.413       .  A
C1283      C1284   1.402   1_556  A
C1283      C1290   1.507       .  S
C1284      C1285   1.402       .  A
C1284      H1289   1.084       .  S
C1285      C1286   1.412       .  A
C1286      C1287   1.505       .  S
C1287      H1291   1.111       .  S
C1287      H1292   1.110       .  S
C1287      H1293   1.110       .  S
C1290      H1294   1.109       .  S
C1290      H1295   1.110       .  S
C1290      H1296   1.111       .  S
C1297      C1298   1.402       .  A
C1297      C1302   1.405       .  A
C1297      H1304   1.084       .  S
C1298      C1299   1.412       .  A
C1299      C1300   1.404       .  A
C1299      C1306   1.507       .  S
C1300      C1301   1.402       .  A
C1300      H1305   1.084       .  S
C1301      C1302   1.413       .  A
C1302      C1303   1.507       .  S
C1303      H1307   1.111       .  S
C1303      H1308   1.111       .  S
C1303      H1309   1.110       .  S
C1306      H1310   1.109       .  S
C1306      H1311   1.110       .  S
C1306      H1312   1.111       .  S
C1313      C1314   1.403       .  A
C1313      C1318   1.405   1_655  A
C1313      H1320   1.084       .  S
C1314      C1315   1.413       .  A
C1315      C1316   1.407   1_655  A
C1315      C1322   1.506       .  S
C1316      C1317   1.403       .  A
C1316      H1321   1.084       .  S
C1317      C1318   1.412       .  A
C1318      C1319   1.506       .  S
C1319      H1323   1.111       .  S
C1319      H1324   1.110       .  S
C1319      H1325   1.110       .  S
C1322      H1326   1.111       .  S
C1322      H1327   1.110       .  S
C1322      H1328   1.111       .  S
C1329      C1330   1.403       .  A
C1329      C1334   1.407   1_655  A
C1329      H1336   1.084       .  S
C1330      C1331   1.413       .  A
C1331      C1332   1.407   1_655  A
C1331      C1338   1.506       .  S
C1332      C1333   1.404       .  A
C1332      H1337   1.084       .  S
C1333      C1334   1.413       .  A
C1334      C1335   1.506       .  S
C1335      H1339   1.111       .  S
C1335      H1340   1.110       .  S
C1335      H1341   1.110       .  S
C1338      H1342   1.110       .  S
C1338      H1343   1.110       .  S
C1338      H1344   1.111       .  S
C1345      C1346   1.404       .  A
C1345      C1350   1.408       .  A
C1345      H1352   1.084       .  S
C1346      C1347   1.415       .  A
C1347      C1348   1.402       .  A
C1347      C1354   1.508       .  S
C1348      C1349   1.402       .  A
C1348      H1353   1.085       .  S
C1349      C1350   1.412       .  A
C1350      C1351   1.506       .  S
C1351      H1355   1.111       .  S
C1351      H1356   1.110       .  S
C1351      H1357   1.111       .  S
C1354      H1358   1.108       .  S
C1354      H1359   1.110       .  S
C1354      H1360   1.110       .  S
C1361      C1362   1.403       .  A
C1361      C1366   1.407   1_556  A
C1361      H1368   1.084       .  S
C1362      C1363   1.413       .  A
C1363      C1364   1.403   1_556  A
C1363      C1370   1.508       .  S
C1364      C1365   1.402       .  A
C1364      H1369   1.084       .  S
C1365      C1366   1.412       .  A
C1366      C1367   1.505       .  S
C1367      H1371   1.111       .  S
C1367      H1372   1.110       .  S
C1367      H1373   1.111       .  S
C1370      H1374   1.110       .  S
C1370      H1375   1.109       .  S
C1370      H1376   1.111       .  S
C1377      C1378   1.403       .  A
C1377      C1382   1.406   1_655  A
C1377      H1384   1.084       .  S
C1378      C1379   1.416       .  A
C1379      C1380   1.406   1_655  A
C1379      C1386   1.507       .  S
C1380      C1381   1.402       .  A
C1380      H1385   1.085       .  S
C1381      C1382   1.412       .  A
C1382      C1383   1.506       .  S
C1383      H1387   1.111       .  S
C1383      H1388   1.110       .  S
C1383      H1389   1.110       .  S
C1386      H1390   1.108       .  S
C1386      H1391   1.111       .  S
C1386      H1392   1.110       .  S
C1393      C1394   1.404       .  A
C1393      C1398   1.408   1_655  A
C1393      H1400   1.084       .  S
C1394      C1395   1.413       .  A
C1395      C1396   1.402   1_655  A
C1395      C1402   1.507       .  S
C1396      C1397   1.404       .  A
C1396      H1401   1.085       .  S
C1397      C1398   1.414       .  A
C1398      C1399   1.506       .  S
C1399      H1403   1.111       .  S
C1399      H1404   1.110       .  S
C1399      H1405   1.110       .  S
C1402      H1406   1.109       .  S
C1402      H1407   1.110       .  S
C1402      H1408   1.110       .  S
C1409      C1410   1.403       .  A
C1409      C1414   1.407       .  A
C1409      H1416   1.084       .  S
C1410      C1411   1.415       .  A
C1411      C1412   1.403       .  A
C1411      C1418   1.508       .  S
C1412      C1413   1.404       .  A
C1412      H1417   1.085       .  S
C1413      C1414   1.416       .  A
C1414      C1415   1.507       .  S
C1415      H1419   1.111       .  S
C1415      H1420   1.108       .  S
C1415      H1421   1.110       .  S
C1418      H1422   1.108       .  S
C1418      H1423   1.110       .  S
C1418      H1424   1.110       .  S
C1425      C1426   1.403       .  A
C1425      C1430   1.404       .  A
C1425      H1432   1.084       .  S
C1426      C1427   1.413       .  A
C1427      C1428   1.407       .  A
C1427      C1434   1.506       .  S
C1428      C1429   1.403       .  A
C1428      H1433   1.084       .  S
C1429      C1430   1.412       .  A
C1430      C1431   1.507       .  S
C1431      H1435   1.111       .  S
C1431      H1436   1.110       .  S
C1431      H1437   1.109       .  S
C1434      H1438   1.110       .  S
C1434      H1439   1.110       .  S
C1434      H1440   1.111       .  S
C1441      C1442   1.403       .  A
C1441      C1446   1.406       .  A
C1441      H1448   1.084       .  S
C1442      C1443   1.412       .  A
C1443      C1444   1.403       .  A
C1443      C1450   1.506       .  S
C1444      C1445   1.403       .  A
C1444      H1449   1.084       .  S
C1445      C1446   1.413       .  A
C1446      C1447   1.506       .  S
C1447      H1451   1.111       .  S
C1447      H1452   1.110       .  S
C1447      H1453   1.110       .  S
C1450      H1454   1.110       .  S
C1450      H1455   1.107       .  S
C1450      H1456   1.111       .  S
C1457      C1458   1.404       .  A
C1457      C1462   1.408   1_556  A
C1457      H1464   1.084       .  S
C1458      C1459   1.412       .  A
C1459      C1460   1.401   1_556  A
C1459      C1466   1.506       .  S
C1460      C1461   1.401       .  A
C1460      H1465   1.084       .  S
C1461      C1462   1.412       .  A
C1462      C1463   1.505       .  S
C1463      H1467   1.111       .  S
C1463      H1468   1.110       .  S
C1463      H1469   1.110       .  S
C1466      H1470   1.107       .  S
C1466      H1471   1.110       .  S
C1466      H1472   1.111       .  S
C1473      C1474   1.403       .  A
C1473      C1478   1.406   1_565  A
C1473      H1480   1.084       .  S
C1474      C1475   1.413       .  A
C1475      C1476   1.408   1_565  A
C1475      C1482   1.506       .  S
C1476      C1477   1.404       .  A
C1476      H1481   1.084       .  S
C1477      C1478   1.413       .  A
C1478      C1479   1.506       .  S
C1479      H1483   1.111       .  S
C1479      H1484   1.110       .  S
C1479      H1485   1.110       .  S
C1482      H1486   1.110       .  S
C1482      H1487   1.111       .  S
C1482      H1488   1.111       .  S
C1489      C1490   1.404       .  A
C1489      C1494   1.405   1_545  A
C1489      H1496   1.084       .  S
C1490      C1491   1.413       .  A
C1491      C1492   1.407   1_545  A
C1491      C1498   1.506       .  S
C1492      C1493   1.403       .  A
C1492      H1497   1.084       .  S
C1493      C1494   1.412       .  A
C1494      C1495   1.506       .  S
C1495      H1499   1.111       .  S
C1495      H1500   1.110       .  S
C1495      H1501   1.110       .  S
C1498      H1502   1.110       .  S
C1498      H1503   1.110       .  S
C1498      H1504   1.111       .  S
C1505      C1506   1.402       .  A
C1505      C1510   1.405       .  A
C1505      H1512   1.084       .  S
C1506      C1507   1.412       .  A
C1507      C1508   1.407       .  A
C1507      C1514   1.506       .  S
C1508      C1509   1.403       .  A
C1508      H1513   1.084       .  S
C1509      C1510   1.412       .  A
C1510      C1511   1.506       .  S
C1511      H1515   1.111       .  S
C1511      H1516   1.110       .  S
C1511      H1517   1.110       .  S
C1514      H1518   1.110       .  S
C1514      H1519   1.110       .  S
C1514      H1520   1.111       .  S
C1521      C1522   1.404       .  A
C1521      C1526   1.409       .  A
C1521      H1528   1.084       .  S
C1522      C1523   1.415       .  A
C1523      C1524   1.404       .  A
C1523      C1530   1.507       .  S
C1524      C1525   1.403       .  A
C1524      H1529   1.084       .  S
C1525      C1526   1.413       .  A
C1526      C1527   1.506       .  S
C1527      H1531   1.111       .  S
C1527      H1532   1.111       .  S
C1527      H1533   1.110       .  S
C1530      H1534   1.110       .  S
C1530      H1535   1.109       .  S
C1530      H1536   1.110       .  S
C1537      C1538   1.403       .  A
C1537      C1542   1.407       .  A
C1537      H1544   1.084       .  S
C1538      C1539   1.413       .  A
C1539      C1540   1.406       .  A
C1539      C1546   1.507       .  S
C1540      C1541   1.404       .  A
C1540      H1545   1.084       .  S
C1541      C1542   1.413       .  A
C1542      C1543   1.506       .  S
C1543      H1547   1.111       .  S
C1543      H1548   1.110       .  S
C1543      H1549   1.110       .  S
C1546      H1550   1.109       .  S
C1546      H1551   1.110       .  S
C1546      H1552   1.111       .  S
C1553      C1554   1.402       .  A
C1553      C1558   1.404   1_556  A
C1553      H1560   1.084       .  S
C1554      C1555   1.412       .  A
C1555      C1556   1.405   1_556  A
C1555      C1562   1.506       .  S
C1556      C1557   1.403       .  A
C1556      H1561   1.084       .  S
C1557      C1558   1.414       .  A
C1558      C1559   1.507       .  S
C1559      H1563   1.111       .  S
C1559      H1564   1.110       .  S
C1559      H1565   1.109       .  S
C1562      H1566   1.110       .  S
C1562      H1567   1.111       .  S
C1562      H1568   1.111       .  S
