geometry optimzed in LAMMPS
_audit_creation_date              2020-12-01 
_audit_creation_method            'lammps2cif' 
_symmetry_space_group_name_H-M    'P1' 
_symmetry_Int_Tables_number       1 
_symmetry_cell_setting            triclinic 
loop_ 
_symmetry_equiv_pos_as_xyz 
  x,y,z 
_cell_length_a                    45.48014463 
_cell_length_b                    45.469787136910035 
_cell_length_c                    45.42443792467847 
_cell_angle_alpha                 89.96000267494897 
_cell_angle_beta                  89.93857768588512 
_cell_angle_gamma                 90.00829840071138 
loop_ 
_atom_site_label 
_atom_site_type_symbol 
_atom_site_fract_x 
_atom_site_fract_y 
_atom_site_fract_z 
_atom_site_charge 
O1          O  0.66880850  0.29020410  0.01968447    -0.70100
O2          O  0.66652228  0.37320985  0.02533287    -0.70300
O3          O  0.62578440  0.33021775  0.02521251    -0.70200
O4          O  0.70911462  0.33331896  0.01944425    -0.70200
O5          O  0.70595709  0.33506440  0.97187687    -0.70100
O6          O  0.62272134  0.33513832  0.97773795    -0.70100
O7          O  0.66454954  0.37663184  0.97771363    -0.70100
O8          O  0.66404715  0.29290514  0.97226402    -0.70300
V9          V  0.66745921  0.33175962  0.02147228     1.35200
V10         V  0.66435678  0.33479561  0.97577986     1.35200
C11         C  0.66668589  0.27723414  0.99520007     0.79200
C12         C  0.66577234  0.38915278  0.00257222     0.79200
C13         C  0.61006125  0.33276709  0.00239899     0.79100
C14         C  0.72182982  0.33498715  0.99470740     0.79100
O15         O  0.29110742  0.33464679  0.97625061    -0.70100
O16         O  0.37467668  0.33356569  0.97791867    -0.70300
O17         O  0.33221067  0.29243324  0.97569893    -0.70200
O18         O  0.33318592  0.37575255  0.97832638    -0.70200
O19         O  0.33241793  0.37428322  0.02608569    -0.70100
O20         O  0.33120065  0.29098620  0.02338133    -0.70100
O21         O  0.37355678  0.33212275  0.02562900    -0.70100
O22         O  0.29028008  0.33312434  0.02397145    -0.70300
V23         V  0.33283694  0.33407592  0.97795316     1.35200
V24         V  0.33191436  0.33265159  0.02382589     1.35200
C25         C  0.27641591  0.33397356  0.99989849     0.79200
C26         C  0.38842775  0.33275073  0.00212143     0.79200
C27         C  0.33109012  0.27741823  0.99911373     0.79100
C28         C  0.33274016  0.38924916  0.00262759     0.79100
O29         O  0.71043403  0.66816163  0.03249772    -0.70100
O30         O  0.62691744  0.66757790  0.03416997    -0.70300
O31         O  0.66919422  0.62601433  0.03581661    -0.70200
O32         O  0.66811880  0.70975309  0.03055260    -0.70200
O33         O  0.66697648  0.70648301  0.98288748    -0.70100
O34         O  0.66904022  0.62360960  0.98811054    -0.70100
O35         O  0.62620000  0.66388763  0.98651982    -0.70100
O36         O  0.70946198  0.66579900  0.98485523    -0.70300
V37         V  0.66863920  0.66786272  0.03239087     1.35200
V38         V  0.66787498  0.66505483  0.98657070     1.35200
C39         C  0.72426328  0.66666890  0.00836715     0.79200
C40         C  0.61232832  0.66534914  0.01060906     0.79200
C41         C  0.66983020  0.61056885  0.01262886     0.79100
C42         C  0.66745223  0.72233953  0.00567759     0.79100
O43         O  0.29279555  0.66810437  0.02427095    -0.70100
O44         O  0.37593477  0.66590306  0.02738722    -0.70300
O45         O  0.33526225  0.70866711  0.02531770    -0.70200
O46         O  0.33330794  0.62544900  0.02627179    -0.70200
O47         O  0.33756333  0.62481198  0.97869686    -0.70100
O48         O  0.33457607  0.70828496  0.97757852    -0.70100
O49         O  0.37788776  0.66794347  0.97968214    -0.70100
O50         O  0.29434011  0.66511111  0.97663202    -0.70300
V51         V  0.33438372  0.66704091  0.02486743     1.35200
V52         V  0.33608830  0.66655258  0.97901086     1.35200
C53         C  0.27928937  0.66663658  0.00002751     0.79200
C54         C  0.39115776  0.66672576  0.00412873     0.79200
C55         C  0.33448813  0.72276137  0.00134250     0.79100
C56         C  0.33548577  0.61086527  0.00271772     0.79100
O57         O  0.71291868  0.97367686  0.66219172    -0.70100
O58         O  0.62953360  0.97698222  0.66133887    -0.70300
O59         O  0.67177245  0.97466419  0.61976305    -0.70200
O60         O  0.67102934  0.97615414  0.70337377    -0.70200
O61         O  0.67571150  0.02362591  0.70225956    -0.70100
O62         O  0.67025118  0.02241898  0.61917406    -0.70100
O63         O  0.63140825  0.02456831  0.66346824    -0.70100
O64         O  0.71464385  0.02124465  0.65800646    -0.70300
V65         V  0.67130432  0.97624399  0.66159561     1.35200
V66         V  0.67299322  0.02205195  0.66072686     1.35200
C67         C  0.72797979  0.99692411  0.66004015     0.79200
C68         C  0.61614504  0.00131912  0.66297005     0.79200
C69         C  0.67060678  0.99839648  0.60526109     0.79100
C70         C  0.67387133  0.00018414  0.71708246     0.79100
O71         O  0.29670089  0.98406167  0.66820779    -0.70100
O72         O  0.38004209  0.98434506  0.66798819    -0.70300
O73         O  0.33830334  0.98462985  0.70947701    -0.70200
O74         O  0.33820227  0.98391892  0.62605172    -0.70200
O75         O  0.33717418  0.03165218  0.62570885    -0.70100
O76         O  0.33914384  0.03228636  0.70923791    -0.70100
O77         O  0.38000746  0.03209648  0.66618646    -0.70100
O78         O  0.29626976  0.03171042  0.66887713    -0.70300
V79         V  0.33833984  0.98518890  0.66784025     1.35200
V80         V  0.33816083  0.03104537  0.66746118     1.35200
C81         C  0.28215359  0.00770486  0.66948519     0.79200
C82         C  0.39424675  0.00821026  0.66711600     0.79200
C83         C  0.33851494  0.00851511  0.72367963     0.79100
C84         C  0.33759940  0.00769298  0.61161021     0.79100
O85         O  0.28717677  0.03357816  0.33653203    -0.70100
O86         O  0.37086655  0.03499251  0.33139922    -0.70300
O87         O  0.32644806  0.03441637  0.29219598    -0.70200
O88         O  0.33124813  0.03428050  0.37576458    -0.70200
O89         O  0.33285018  0.98655526  0.37553901    -0.70100
O90         O  0.32660741  0.98672305  0.29235002    -0.70100
O91         O  0.37126109  0.98725465  0.33102231    -0.70100
O92         O  0.28832703  0.98591695  0.33710109    -0.70300
V93         V  0.32899475  0.03344573  0.33396510     1.35200
V94         V  0.32976378  0.98758916  0.33395228     1.35200
C95         C  0.27348141  0.00937296  0.33796520     0.79200
C96         C  0.38532542  0.01120293  0.33054231     0.79200
C97         C  0.32532457  0.01051970  0.27799950     0.79100
C98         C  0.33276457  0.01033995  0.38989337     0.79100
O99         O  0.70576444  0.01904851  0.32645270    -0.70100
O100        O  0.62264396  0.02326236  0.32743174    -0.70300
O101        O  0.66483375  0.02196840  0.36872791    -0.70200
O102        O  0.66370129  0.01988571  0.28513587    -0.70200
O103        O  0.66290862  0.97222914  0.28645963    -0.70100
O104        O  0.66090961  0.97446047  0.36975591    -0.70100
O105        O  0.62000234  0.97561697  0.32689080    -0.70100
O106        O  0.70374752  0.97150405  0.32914064    -0.70300
V107        V  0.66417270  0.02010805  0.32694204     1.35200
V108        V  0.66191262  0.97434588  0.32806169     1.35200
C109        C  0.71909479  0.99473380  0.32805388     0.79200
C110        C  0.60705019  0.00028388  0.32692558     0.79200
C111        C  0.66304973  0.99847892  0.38356669     0.79100
C112        C  0.66340255  0.99563453  0.27149050     0.79100
O113        O  0.02132428  0.70970722  0.66943390    -0.70100
O114        O  0.02131725  0.62670840  0.66001813    -0.70300
O115        O  0.02075926  0.67275494  0.62349728    -0.70200
O116        O  0.02199248  0.66328806  0.70646544    -0.70200
O117        O  0.97450599  0.66735843  0.70770945    -0.70100
O118        O  0.97319772  0.66816342  0.62408163    -0.70100
O119        O  0.97383037  0.62634374  0.66544962    -0.70100
O120        O  0.97378492  0.70991120  0.66622911    -0.70300
V121        V  0.02047324  0.66817981  0.66496802     1.35200
V122        V  0.97468416  0.66806636  0.66586656     1.35200
C123        C  0.99759131  0.72418231  0.66831042     0.79200
C124        C  0.99753739  0.61238725  0.66153240     0.79200
C125        C  0.99683322  0.67057602  0.60958753     0.79100
C126        C  0.99847636  0.66377954  0.72136136     0.79100
O127        O  0.02876667  0.33703234  0.70414362    -0.70100
O128        O  0.02507663  0.33391185  0.62075163    -0.70300
O129        O  0.02635773  0.37720981  0.66057448    -0.70200
O130        O  0.02736709  0.29353572  0.66391582    -0.70200
O131        O  0.97972173  0.29325111  0.66777555    -0.70100
O132        O  0.97872291  0.37642249  0.66145305    -0.70100
O133        O  0.97750554  0.33206729  0.62293315    -0.70100
O134        O  0.98105008  0.33754583  0.70607598    -0.70300
V135        V  0.02600329  0.33539062  0.66243185     1.35200
V136        V  0.98019421  0.33485338  0.66450975     1.35200
C137        C  0.00545883  0.33760920  0.71932570     0.79200
C138        C  0.00066856  0.33264943  0.60752794     0.79200
C139        C  0.00226599  0.39111657  0.65976148     0.79100
C140        C  0.00367043  0.27923513  0.66681359     0.79100
O141        O  0.02526350  0.66420735  0.29059079    -0.70100
O142        O  0.02438074  0.65991907  0.37406488    -0.70300
O143        O  0.02547749  0.62039663  0.32999827    -0.70200
O144        O  0.02437237  0.70357334  0.33455663    -0.70200
O145        O  0.97669495  0.70317881  0.33441099    -0.70100
O146        O  0.97772502  0.61976932  0.32965265    -0.70100
O147        O  0.97672774  0.65923871  0.37351451    -0.70100
O148        O  0.97751556  0.66414609  0.29021646    -0.70300
V149        V  0.02394257  0.66198534  0.33229555     1.35200
V150        V  0.97808376  0.66151793  0.33190684     1.35200
C151        C  0.00151055  0.66519498  0.27619123     0.79200
C152        C  0.00035558  0.65932577  0.38811728     0.79200
C153        C  0.00182187  0.60587678  0.32910579     0.79100
C154        C  0.00042770  0.71763478  0.33549715     0.79100
O155        O  0.97227507  0.28804551  0.33305921    -0.70100
O156        O  0.97607864  0.37131247  0.32567476    -0.70300
O157        O  0.97492698  0.32637789  0.28776737    -0.70200
O158        O  0.97318744  0.33338330  0.37096627    -0.70200
O159        O  0.02061615  0.32771745  0.37211366    -0.70100
O160        O  0.02256198  0.32757854  0.28859972    -0.70100
O161        O  0.02353404  0.36932787  0.33006747    -0.70100
O162        O  0.01986491  0.28604868  0.33071283    -0.70300
V163        V  0.97498746  0.32970478  0.32937861     1.35200
V164        V  0.02074416  0.32770599  0.33035784     1.35200
C165        C  0.99554582  0.27275972  0.33282892     0.79200
C166        C  0.00050769  0.38456932  0.32696521     0.79200
C167        C  0.99900926  0.32686916  0.27384062     0.79100
C168        C  0.99657725  0.33092362  0.38573580     0.79100
O169        O  0.00170692  0.31178940  0.95355728    -0.70100
O170        O  0.99667330  0.30967876  0.03686913    -0.70300
O171        O  0.95724745  0.31140666  0.99264359    -0.70200
O172        O  0.04060916  0.31023837  0.99757219    -0.70200
O173        O  0.04108500  0.35791188  0.99730558    -0.70100
O174        O  0.95782316  0.35904357  0.99522796    -0.70100
O175        O  0.99873394  0.35730708  0.03813597    -0.70100
O176        O  0.00042544  0.35954935  0.95468431    -0.70300
V177        V  0.99897768  0.31167973  0.99520719     1.35200
V178        V  0.99946529  0.35752282  0.99636025     1.35200
C179        C  0.00192767  0.33603587  0.93996117     0.79200
C180        C  0.99776677  0.33309633  0.05181814     0.79200
C181        C  0.94327751  0.33547791  0.99292787     0.79100
C182        C  0.05513850  0.33394826  0.99791967     0.79100
O183        O  0.00199438  0.63889802  0.04168527    -0.70100
O184        O  0.00113455  0.63280463  0.95838708    -0.70300
O185        O  0.04347574  0.63641931  0.99964737    -0.70200
O186        O  0.95988089  0.63550039  0.00083012    -0.70200
O187        O  0.95954439  0.68286755  0.99509614    -0.70100
O188        O  0.04270790  0.68407169  0.99855606    -0.70100
O189        O  0.00315444  0.68040780  0.95509939    -0.70100
O190        O  0.99923703  0.68636756  0.03843966    -0.70300
V191        V  0.00163549  0.63679237  0.00003672     1.35200
V192        V  0.00115606  0.68250871  0.99680944     1.35200
C193        C  0.00020450  0.66356731  0.05438003     0.79200
C194        C  0.00250703  0.65560701  0.94251322     0.79200
C195        C  0.05741274  0.66052179  0.99943716     0.79100
C196        C  0.94543347  0.65912778  0.99826096     0.79100
O197        O  0.99420363  0.03719526  0.36692777    -0.70100
O198        O  0.99707838  0.95366228  0.36771441    -0.70300
O199        O  0.03745772  0.99700958  0.36883080    -0.70200
O200        O  0.95376920  0.99394382  0.36555406    -0.70200
O201        O  0.95600654  0.99417348  0.31787200    -0.70100
O202        O  0.03905397  0.99599566  0.32110180    -0.70100
O203        O  0.99851137  0.95341888  0.32001158    -0.70100
O204        O  0.99651984  0.03679614  0.31923394    -0.70300
V205        V  0.99565790  0.99542962  0.36637887     1.35200
V206        V  0.99748906  0.99509441  0.32052234     1.35200
C207        C  0.99491074  0.05129570  0.34292859     0.79200
C208        C  0.99825813  0.93922312  0.34395486     0.79200
C209        C  0.05252169  0.99694575  0.34537397     0.79100
C210        C  0.94059068  0.99378825  0.34100302     0.79100
O211        O  0.00254351  0.96016631  0.69760992    -0.70100
O212        O  0.00458222  0.04383509  0.69926135    -0.70300
O213        O  0.96178608  0.00280822  0.69676950    -0.70200
O214        O  0.04538484  0.00111703  0.70002725    -0.70200
O215        O  0.04705283  0.00339678  0.65234632    -0.70100
O216        O  0.96389911  0.00202200  0.64906694    -0.70100
O217        O  0.00442104  0.04460232  0.65141247    -0.70100
O218        O  0.00586791  0.96109608  0.65000396    -0.70300
V219        V  0.00362618  0.00201410  0.69753145     1.35200
V220        V  0.00536674  0.00281562  0.65166144     1.35200
C221        C  0.00364831  0.94629608  0.67347905     0.79200
C222        C  0.00426535  0.05840965  0.67555131     0.79200
C223        C  0.94858379  0.00199402  0.67226621     0.79100
C224        C  0.06051338  0.00212166  0.67665552     0.79100
O225        O  0.64453143  0.99530652  0.03505532    -0.70100
O226        O  0.64745578  0.00179604  0.95183476    -0.70300
O227        O  0.64673252  0.95697946  0.99012035    -0.70200
O228        O  0.64511609  0.04034241  0.99642677    -0.70200
O229        O  0.69276560  0.04119434  0.99489169    -0.70100
O230        O  0.69421919  0.95767488  0.99536962    -0.70100
O231        O  0.69503327  0.99942974  0.95345789    -0.70100
O232        O  0.69200864  0.99931277  0.03671311    -0.70300
V233        V  0.64683153  0.99863967  0.99342706     1.35200
V234        V  0.69260606  0.99940982  0.99507125     1.35200
C235        C  0.66785125  0.99646009  0.05016726     0.79200
C236        C  0.67178132  0.00115569  0.93835737     0.79200
C237        C  0.67071806  0.94313627  0.99242724     0.79100
C238        C  0.66869324  0.05511075  0.99575900     0.79100
O239        O  0.34951872  0.95891301  0.00255757    -0.70100
O240        O  0.34882427  0.04218816  0.00070482    -0.70300
O241        O  0.34747199  0.00130730  0.04342777    -0.70200
O242        O  0.35085707  0.99994169  0.96005263    -0.70200
O243        O  0.30324032  0.99930184  0.95811367    -0.70100
O244        O  0.29976106  0.00135248  0.04157922    -0.70100
O245        O  0.30114718  0.04178369  0.99872189    -0.70100
O246        O  0.30189749  0.95834255  0.00090772    -0.70300
V247        V  0.34823451  0.00053881  0.00168054     1.35200
V248        V  0.30242138  0.00012214  0.99988022     1.35200
C249        C  0.32590955  0.94430613  0.00203559     0.79200
C250        C  0.32488767  0.05621538  0.99910958     0.79200
C251        C  0.32305225  0.00186019  0.05673172     0.79100
C252        C  0.32764681  0.99996711  0.94477556     0.79100
C253        C  0.00051481  0.13112692  0.36705146     0.14400
C254        C  0.99275727  0.14592180  0.34110842     0.01300
C255        C  0.98539194  0.12972673  0.31594129     0.16300
C256        C  0.98593066  0.09899567  0.31655793     0.25700
C257        C  0.99388463  0.08389770  0.34248285    -0.40600
C258        C  0.00104605  0.10034709  0.36780805     0.32800
C259        C  0.99348357  0.17831104  0.33977905     0.01400
F260        F  0.97779023  0.14377818  0.29068740    -0.12900
F261        F  0.00932874  0.08673961  0.39309106    -0.13400
C262        C  0.01857054  0.19261027  0.32901848     0.16300
C263        C  0.01923835  0.22325442  0.32679128     0.25700
C264        C  0.99462018  0.24020278  0.33514416    -0.40600
C265        C  0.96948433  0.22565886  0.34612136     0.32700
C266        C  0.96900330  0.19493633  0.34846119     0.14400
F267        F  0.04243429  0.17677807  0.32054689    -0.12900
F268        F  0.94554736  0.24110966  0.35506071    -0.13400
F269        F  0.04388247  0.23622514  0.31597913    -0.15700
F270        F  0.94460704  0.18134500  0.35907050    -0.14300
F271        F  0.00807771  0.14655201  0.39148125    -0.14300
F272        F  0.97836361  0.08408187  0.29181225    -0.15700
C273        C  0.99173076  0.30543591  0.13046738     0.14400
C274        C  0.00026666  0.33035831  0.14652700     0.01300
C275        C  0.00834779  0.35606842  0.13145870     0.16300
C276        C  0.00743986  0.35702642  0.10070484     0.25700
C277        C  0.99847857  0.33217118  0.08444216    -0.40600
C278        C  0.99092457  0.30624325  0.09972578     0.32800
C279        C  0.00011254  0.32959606  0.17903753     0.01400
F280        F  0.01666945  0.38043325  0.14658389    -0.12900
F281        F  0.98247531  0.28166549  0.08503430    -0.13400
C282        C  0.02628536  0.33320129  0.19495079     0.16300
C283        C  0.02606447  0.33198761  0.22572049     0.25700
C284        C  0.99952460  0.32726254  0.24116230    -0.40600
C285        C  0.97328925  0.32384856  0.22496858     0.32700
C286        C  0.97365166  0.32500049  0.19424357     0.14400
F287        F  0.05215077  0.33755389  0.18063367    -0.12900
F288        F  0.94714613  0.31942891  0.23873722    -0.13400
F289        F  0.05184507  0.33576051  0.24028333    -0.15700
F290        F  0.94799660  0.32209672  0.17925206    -0.14300
F291        F  0.98441221  0.28016741  0.14464889    -0.14300
F292        F  0.01577507  0.38219350  0.08691849    -0.15700
C293        C  0.02752494  0.46307892  0.33538994     0.14400
C294        C  0.00386241  0.47906659  0.32366775     0.01300
C295        C  0.97980087  0.46389129  0.31169587     0.16300
C296        C  0.97887206  0.43318040  0.31236891     0.25700
C297        C  0.00210041  0.41704635  0.32500272    -0.40600
C298        C  0.02672601  0.43233365  0.33598861     0.32800
C299        C  0.00359791  0.51155649  0.32501315     0.01400
F300        F  0.95718509  0.47891087  0.29926305    -0.12900
F301        F  0.04965374  0.41763814  0.34822514    -0.13400
C302        C  0.02544521  0.52814733  0.31076500     0.16300
C303        C  0.02494939  0.55888150  0.31216854     0.25700
C304        C  0.00240980  0.57346884  0.32761215    -0.40600
C305        C  0.98063849  0.55679760  0.34193631     0.32700
C306        C  0.98133898  0.52610167  0.34077555     0.14400
F307        F  0.04691363  0.51458187  0.29503065    -0.12900
F308        F  0.95920788  0.57018827  0.35786894    -0.13400
F309        F  0.04605996  0.57439295  0.29778081    -0.15700
F310        F  0.96061359  0.51047664  0.35559523    -0.14300
F311        F  0.05096283  0.47728545  0.34722396    -0.14300
F312        F  0.95534625  0.41928221  0.30035076    -0.15700
C313        C  0.02623816  0.79692994  0.33497087     0.14400
C314        C  0.00041725  0.81201245  0.34256548     0.01300
C315        C  0.97460624  0.79603713  0.34821082     0.16300
C316        C  0.97449716  0.76536539  0.34589191     0.25700
C317        C  0.00032483  0.75012649  0.33797240    -0.40600
C318        C  0.02624999  0.76631265  0.33268589     0.32800
C319        C  0.00018189  0.84449301  0.34331320     0.01400
F320        F  0.94930848  0.81023200  0.35530358    -0.12900
F321        F  0.05160420  0.75264780  0.32479712    -0.13400
C322        C  0.00632048  0.86046403  0.31760890     0.16300
C323        C  0.00588495  0.89115595  0.31788226     0.25700
C324        C  0.99925545  0.90658846  0.34398421    -0.40600
C325        C  0.99338441  0.89041593  0.36986914     0.32700
C326        C  0.99377919  0.85963281  0.36946100     0.14400
F327        F  0.01229178  0.84623757  0.29201228    -0.12900
F328        F  0.98692879  0.90426398  0.39554546    -0.13400
F329        F  0.01215651  0.90566436  0.29250771    -0.15700
F330        F  0.98822738  0.84456152  0.39468449    -0.14300
F331        F  0.05154220  0.81193794  0.32980208    -0.14300
F332        F  0.94911859  0.75067399  0.35156998    -0.15700
C333        C  0.99883578  0.69444875  0.13227065     0.14400
C334        C  0.99983304  0.66858104  0.14917814     0.01300
C335        C  0.99982301  0.64123863  0.13486732     0.16300
C336        C  0.99974389  0.63965155  0.10420584     0.25700
C337        C  0.99940053  0.66549449  0.08701823    -0.40600
C338        C  0.99849785  0.69296009  0.10147057     0.32800
C339        C  0.00121124  0.66970829  0.18173120     0.01400
F340        F  0.99964804  0.61588811  0.15069766    -0.12900
F341        F  0.99758569  0.71846023  0.08592479    -0.13400
C342        C  0.97887329  0.68350572  0.19805790     0.16300
C343        C  0.97911430  0.68232218  0.22883943     0.25700
C344        C  0.00176932  0.66741411  0.24377004    -0.40600
C345        C  0.02454066  0.65436133  0.22740943     0.32700
C346        C  0.02426573  0.65553269  0.19668664     0.14400
F347        F  0.95634162  0.69734506  0.18419475    -0.12900
F348        F  0.04653035  0.63950155  0.24109403    -0.13400
F349        F  0.95730934  0.69595217  0.24404745    -0.15700
F350        F  0.04645619  0.64257084  0.18144657    -0.14300
F351        F  0.99891447  0.72118818  0.14556471    -0.14300
F352        F  0.00002430  0.61264157  0.09148647    -0.15700
C353        C  0.01290362  0.31117655  0.46465717     0.14400
C354        C  0.99573075  0.33173743  0.48012327     0.01300
C355        C  0.97815165  0.35168180  0.46425739     0.16300
C356        C  0.97795140  0.35113756  0.43344788     0.25700
C357        C  0.99589757  0.33117284  0.41811052    -0.40600
C358        C  0.01328763  0.31116875  0.43394252     0.32800
C359        C  0.99673371  0.33254289  0.51271792     0.01400
F360        F  0.96184694  0.37222285  0.47855532    -0.12900
F361        F  0.03007116  0.29103150  0.41962180    -0.13400
C362        C  0.02386636  0.33495331  0.52727914     0.16300
C363        C  0.02519791  0.33462039  0.55797669     0.25700
C364        C  0.99927903  0.33234905  0.57489357    -0.40600
C365        C  0.97202850  0.33043608  0.56020128     0.32700
C366        C  0.97082477  0.33035817  0.52944229     0.14400
F367        F  0.04919101  0.33805156  0.51170837    -0.12900
F368        F  0.94642613  0.32849696  0.57548181    -0.13400
F369        F  0.05197635  0.33674567  0.57099557    -0.15700
F370        F  0.94432532  0.32751376  0.51600080    -0.14300
F371        F  0.02903880  0.29078168  0.47934633    -0.14300
F372        F  0.96105161  0.37078844  0.41860526    -0.15700
C373        C  0.98905317  0.35781563  0.86084152     0.14400
C374        C  0.00740267  0.33797432  0.84596952     0.01300
C375        C  0.02432313  0.31778052  0.86199971     0.16300
C376        C  0.02249667  0.31707119  0.89270966     0.25700
C377        C  0.00402214  0.33687348  0.90767968    -0.40600
C378        C  0.98755661  0.35747042  0.89154783     0.32800
C379        C  0.00762562  0.33742037  0.81362484     0.01400
F380        F  0.04221634  0.29850982  0.84783989    -0.12900
F381        F  0.96926271  0.37654677  0.90546361    -0.13400
C382        C  0.03011204  0.35141129  0.79776598     0.16300
C383        C  0.02962329  0.35145056  0.76695778     0.25700
C384        C  0.00647137  0.33762406  0.75176125    -0.40600
C385        C  0.98413925  0.32342167  0.76786569     0.32700
C386        C  0.98478747  0.32328649  0.79856398     0.14400
F387        F  0.05220278  0.36539498  0.81216980    -0.12900
F388        F  0.96201754  0.30905322  0.75388423    -0.13400
F389        F  0.05125117  0.36569745  0.75204996    -0.15700
F390        F  0.96319415  0.30920970  0.81369283    -0.14300
F391        F  0.97236864  0.37727435  0.84551851    -0.14300
F392        F  0.03914695  0.29743222  0.90785228    -0.15700
C393        C  0.97983323  0.13656655  0.66131953     0.14400
C394        C  0.00251881  0.15269261  0.67465457     0.01300
C395        C  0.02540110  0.13772990  0.68901116     0.16300
C396        C  0.02572294  0.10692750  0.68983628     0.25700
C397        C  0.00339237  0.09077908  0.67589782    -0.40600
C398        C  0.98037715  0.10577972  0.66175230     0.32800
C399        C  0.00282162  0.18512302  0.67278897     0.01400
F400        F  0.04763750  0.15301199  0.70176848    -0.12900
F401        F  0.95821561  0.09055658  0.64877455    -0.13400
C402        C  0.99002775  0.20219642  0.69512840     0.16300
C403        C  0.99027469  0.23294202  0.69315622     0.25700
C404        C  0.00378754  0.24693563  0.66907192    -0.40600
C405        C  0.01677134  0.22983387  0.64685987     0.32700
C406        C  0.01603819  0.19909598  0.64857610     0.14400
F407        F  0.97731221  0.18904608  0.71877412    -0.12900
F408        F  0.02932220  0.24292239  0.62309054    -0.13400
F409        F  0.97789679  0.24910175  0.71503478    -0.15700
F410        F  0.02806037  0.18289143  0.62654984    -0.14300
F411        F  0.95728672  0.15068946  0.64777428    -0.14300
F412        F  0.04834925  0.09284317  0.70328789    -0.15700
C413        C  0.02548453  0.65861477  0.46784746     0.14400
C414        C  0.99885665  0.66313964  0.48288022     0.01300
C415        C  0.97267494  0.66559237  0.46671142     0.16300
C416        C  0.97305776  0.66368177  0.43603291     0.25700
C417        C  0.99978710  0.65960020  0.42077691    -0.40600
C418        C  0.02600305  0.65697430  0.43711502     0.32800
C419        C  0.99828728  0.66529779  0.51540235     0.01400
F420        F  0.94671168  0.67061299  0.48062719    -0.12900
F421        F  0.05224053  0.65277969  0.42346562    -0.13400
C422        C  0.01575867  0.68619687  0.53006433     0.16300
C423        C  0.01524688  0.68805523  0.56079007     0.25700
C424        C  0.99670165  0.66957144  0.57723280    -0.40600
C425        C  0.97908381  0.64884787  0.56260086     0.32700
C426        C  0.98009127  0.64652412  0.53196138     0.14400
F427        F  0.03295789  0.70511966  0.51459291    -0.12900
F428        F  0.96186507  0.62994257  0.57808272    -0.13400
F429        F  0.03244305  0.70827362  0.57445990    -0.15700
F430        F  0.96387707  0.62538169  0.51848724    -0.14300
F431        F  0.05102138  0.65542631  0.48297815    -0.14300
F432        F  0.94721526  0.66650655  0.42135684    -0.15700
C433        C  0.01378324  0.53565632  0.63397551     0.14400
C434        C  0.99799385  0.51836327  0.65425137     0.01300
C435        C  0.98148447  0.53233461  0.67641895     0.16300
C436        C  0.98094135  0.56298546  0.67842839     0.25700
C437        C  0.99742059  0.58016674  0.65874624    -0.40600
C438        C  0.01373791  0.56634408  0.63640689     0.32800
C439        C  0.99933892  0.48579668  0.65312360     0.01400
F440        F  0.96660118  0.51623536  0.69674058    -0.12900
F441        F  0.02901279  0.58261975  0.61651135    -0.13400
C442        C  0.02648054  0.47115248  0.65503066     0.16300
C443        C  0.02757209  0.44042834  0.65673466     0.25700
C444        C  0.00144007  0.42369228  0.65676761    -0.40600
C445        C  0.97432578  0.43851425  0.65386131     0.32700
C446        C  0.97335568  0.46917005  0.65193197     0.14400
F447        F  0.05195687  0.48667400  0.65634739    -0.12900
F448        F  0.94855229  0.42346955  0.65302290    -0.13400
F449        F  0.05425726  0.42723639  0.65893590    -0.15700
F450        F  0.94689758  0.48269330  0.64896917    -0.14300
F451        F  0.02892055  0.52283964  0.61162529    -0.14300
F452        F  0.96521480  0.57586743  0.70033300    -0.15700
C453        C  0.97161241  0.80386908  0.66975370     0.14400
C454        C  0.99839936  0.81912545  0.66982740     0.01300
C455        C  0.02484156  0.80333531  0.66928564     0.16300
C456        C  0.02462267  0.77257626  0.66882854     0.25700
C457        C  0.99778398  0.75693707  0.66902687    -0.40600
C458        C  0.97123161  0.77306081  0.66942065     0.32800
C459        C  0.99892721  0.85158234  0.67084002     0.01400
F460        F  0.05095239  0.81781983  0.66897799    -0.12900
F461        F  0.94482006  0.75914338  0.66961015    -0.13400
C462        C  0.00430685  0.86610966  0.69750948     0.16300
C463        C  0.00569500  0.89684722  0.69849064     0.25700
C464        C  0.00201117  0.91363677  0.67262220    -0.40600
C465        C  0.99635579  0.89881410  0.64590224     0.32700
C466        C  0.99478640  0.86807651  0.64509996     0.14400
F467        F  0.00823140  0.85041776  0.72264025    -0.12900
F468        F  0.99197436  0.91398711  0.62052753    -0.13400
F469        F  0.01102604  0.91005269  0.72474315    -0.15700
F470        F  0.98952027  0.85433764  0.61910144    -0.14300
F471        F  0.94580675  0.81887387  0.67028139    -0.14300
F472        F  0.05078842  0.75823616  0.66796544    -0.15700
C473        C  0.01887657  0.67339946  0.86280415     0.14400
C474        C  0.00240541  0.65191571  0.84803396     0.01300
C475        C  0.98700243  0.63067256  0.86436254     0.16300
C476        C  0.98767617  0.63125778  0.89520240     0.25700
C477        C  0.00328464  0.65351351  0.91005314    -0.40600
C478        C  0.01917203  0.67433983  0.89354069     0.32800
C479        C  0.00060363  0.65267187  0.81558893     0.01400
F480        F  0.97119730  0.60953667  0.85041003    -0.12900
F481        F  0.03525467  0.69547477  0.90717387    -0.13400
C482        C  0.02518854  0.64537276  0.79845799     0.16300
C483        C  0.02445359  0.64879127  0.76786624     0.25700
C484        C  0.99904457  0.65976662  0.75382402    -0.40600
C485        C  0.97416685  0.66643634  0.77116442     0.32700
C486        C  0.97499557  0.66287837  0.80176529     0.14400
F487        F  0.04999283  0.63502854  0.81145787    -0.12900
F488        F  0.94924541  0.67713956  0.75869830    -0.13400
F489        F  0.04862600  0.64115673  0.75205943    -0.15700
F490        F  0.95109332  0.67032647  0.81807434    -0.14300
F491        F  0.03412964  0.69393262  0.84734818    -0.14300
F492        F  0.97221156  0.61075828  0.91049535    -0.15700
C493        C  0.79869715  0.01953463  0.33360467     0.14400
C494        C  0.81377670  0.99272181  0.33240370     0.01300
C495        C  0.79793595  0.96647333  0.32909100     0.16300
C496        C  0.76718226  0.96697534  0.32734950     0.25700
C497        C  0.75177512  0.99386963  0.32901332    -0.40600
C498        C  0.76803305  0.02018428  0.33199943     0.32800
C499        C  0.84612708  0.99232917  0.33455996     0.01400
F500        F  0.81234246  0.94038349  0.32730373    -0.12900
F501        F  0.75436885  0.04667174  0.33380186    -0.13400
C502        C  0.85986502  0.98508868  0.36122970     0.16300
C503        C  0.89056553  0.98567461  0.36353890     0.25700
C504        C  0.90801511  0.99333453  0.33902426    -0.40600
C505        C  0.89394604  0.00058434  0.31228785     0.32700
C506        C  0.86330364  0.00017500  0.31018083     0.14400
F507        F  0.84344880  0.97782844  0.38513543    -0.12900
F508        F  0.90974449  0.00861668  0.28820443    -0.13400
F509        F  0.90311821  0.97847983  0.38967169    -0.15700
F510        F  0.85031843  0.00750175  0.28428857    -0.14300
F511        F  0.81375300  0.04513818  0.33671977    -0.14300
F512        F  0.75262038  0.94115194  0.32385966    -0.15700
C513        C  0.69148092  0.00020329  0.13007658     0.14400
C514        C  0.66555536  0.99216627  0.14462699     0.01300
C515        C  0.64051395  0.98474644  0.12831311     0.16300
C516        C  0.64118469  0.98592265  0.09756110     0.25700
C517        C  0.66706585  0.99453168  0.08271276    -0.40600
C518        C  0.69234039  0.00130132  0.09938835     0.32800
C519        C  0.66441383  0.99273822  0.17693692     0.01400
F520        F  0.61531385  0.97677040  0.14224907    -0.12900
F521        F  0.71782534  0.00952734  0.08614011    -0.13400
C522        C  0.65935664  0.01936851  0.19155082     0.16300
C523        C  0.65890890  0.02035529  0.22226437     0.25700
C524        C  0.66364228  0.99459029  0.23888969    -0.40600
C525        C  0.66866600  0.96782059  0.22394336     0.32700
C526        C  0.66902764  0.96698089  0.19318752     0.14400
F527        F  0.65484505  0.04445018  0.17595591    -0.12900
F528        F  0.67370900  0.94249129  0.23896512    -0.13400
F529        F  0.65360057  0.04652918  0.23561061    -0.15700
F530        F  0.67427141  0.94111253  0.17921069    -0.14300
F531        F  0.71591694  0.00727249  0.14570179    -0.14300
F532        F  0.61653605  0.97852611  0.08243841    -0.15700
C533        C  0.46450412  0.03243462  0.31394535     0.14400
C534        C  0.47992043  0.00862937  0.32637917     0.01300
C535        C  0.46407026  0.98622418  0.34059197     0.16300
C536        C  0.43341515  0.98725369  0.34196783     0.25700
C537        C  0.41786922  0.01091157  0.32941123    -0.40600
C538        C  0.43372310  0.03366566  0.31560112     0.32800
C539        C  0.51251453  0.00714939  0.32516724     0.01400
F540        F  0.47837999  0.96355244  0.35375753    -0.12900
F541        F  0.41942413  0.05662799  0.30294728    -0.13400
C542        C  0.52964322  0.02972543  0.33743828     0.16300
C543        C  0.56032443  0.02751188  0.33789256     0.25700
C544        C  0.57452605  0.00250477  0.32630499    -0.40600
C545        C  0.55734307  0.98002880  0.31376315     0.32700
C546        C  0.52665605  0.98243402  0.31304442     0.14400
F547        F  0.51660413  0.05352868  0.34989800    -0.12900
F548        F  0.57023115  0.95597986  0.30162748    -0.13400
F549        F  0.57606906  0.04950066  0.35053963    -0.15700
F550        F  0.51068856  0.96069044  0.30024993    -0.14300
F551        F  0.47922186  0.05415887  0.29964642    -0.14300
F552        F  0.41896897  0.96536554  0.35630522    -0.15700
C553        C  0.19287583  0.03174538  0.33787160     0.14400
C554        C  0.17914772  0.00495549  0.34462668     0.01300
C555        C  0.19628547  0.97988355  0.34964379     0.16300
C556        C  0.22688866  0.98142117  0.34779566     0.25700
C557        C  0.24096997  0.00817583  0.34064884    -0.40600
C558        C  0.22355938  0.03340850  0.33586875     0.32800
C559        C  0.14684060  0.00272613  0.34522732     0.01400
F560        F  0.18327817  0.95382370  0.35629267    -0.12900
F561        F  0.23606845  0.05954041  0.32860673    -0.13400
C562        C  0.13200489  0.99010169  0.32136041     0.16300
C563        C  0.10138377  0.98793660  0.32159051     0.25700
C564        C  0.08504712  0.99818333  0.34591238    -0.40600
C565        C  0.10012575  0.01034656  0.37010563     0.32700
C566        C  0.13082239  0.01273544  0.36964529     0.14400
F567        F  0.14725840  0.98008161  0.29768627    -0.12900
F568        F  0.08518389  0.02061851  0.39385545    -0.13400
F569        F  0.08778965  0.97547368  0.29809807    -0.15700
F570        F  0.14497895  0.02473455  0.39303478    -0.14300
F571        F  0.17646344  0.05611029  0.33252945    -0.14300
F572        F  0.24264358  0.95662954  0.35315648    -0.15700
C573        C  0.32758637  0.03456238  0.19785579     0.14400
C574        C  0.31972145  0.00845084  0.18345403     0.01300
C575        C  0.31258168  0.98347305  0.20006379     0.16300
C576        C  0.31389713  0.98430896  0.23077460     0.25700
C577        C  0.32261513  0.01020763  0.24545818    -0.40600
C578        C  0.32904742  0.03549354  0.22862375     0.32800
C579        C  0.32028763  0.00676616  0.15104739     0.01400
F580        F  0.30437922  0.95820145  0.18643917    -0.12900
F581        F  0.33759244  0.06088947  0.24178940    -0.13400
C582        C  0.34299106  0.99138766  0.13689050     0.16300
C583        C  0.34393284  0.98984311  0.10618693     0.25700
C584        C  0.32184802  0.00326924  0.08917680    -0.40600
C585        C  0.29889856  0.01840739  0.10346666     0.32700
C586        C  0.29828033  0.02032500  0.13421078     0.14400
F587        F  0.36439672  0.97807296  0.15289418    -0.12900
F588        F  0.27752345  0.03201741  0.08766905    -0.13400
F589        F  0.36613157  0.97471882  0.09312094    -0.15700
F590        F  0.27613723  0.03524001  0.14759858    -0.14300
F591        F  0.33470538  0.05889212  0.18202797    -0.14300
F592        F  0.30645210  0.95974406  0.24607403    -0.15700
C593        C  0.34919683  0.03136811  0.53249153     0.14400
C594        C  0.33655386  0.00786157  0.51697522     0.01300
C595        C  0.32465285  0.98401974  0.53266476     0.16300
C596        C  0.32516646  0.98380812  0.56346065     0.25700
C597        C  0.33746512  0.00755323  0.57906573    -0.40600
C598        C  0.34958583  0.03128402  0.56325363     0.32800
C599        C  0.33557303  0.00843646  0.48443020     0.01400
F600        F  0.31187823  0.96127398  0.51814218    -0.12900
F601        F  0.36244982  0.05412854  0.57753851    -0.13400
C602        C  0.34975043  0.98649570  0.46794348     0.16300
C603        C  0.34894142  0.98718998  0.43718018     0.25700
C604        C  0.33409710  0.00998643  0.42238400    -0.40600
C605        C  0.31995010  0.03197425  0.43895002     0.32700
C606        C  0.32059227  0.03111482  0.46971736     0.14400
F607        F  0.36485989  0.96469359  0.48166697    -0.12900
F608        F  0.30466912  0.05376783  0.42540357    -0.13400
F609        F  0.36326259  0.96592021  0.42185919    -0.15700
F610        F  0.30602511  0.05208473  0.48522110    -0.14300
F611        F  0.36160674  0.05422574  0.51776971    -0.14300
F612        F  0.31282784  0.96079077  0.57799080    -0.15700
C613        C  0.33481078  0.03456796  0.80310334     0.14400
C614        C  0.33375840  0.00770463  0.81819559     0.01300
C615        C  0.33457889  0.98128257  0.80246594     0.16300
C616        C  0.33639163  0.98154397  0.77182934     0.25700
C617        C  0.33746448  0.00842388  0.75630351    -0.40600
C618        C  0.33670796  0.03500555  0.77235957     0.32800
C619        C  0.33222888  0.00688257  0.85048863     0.01400
F620        F  0.33342241  0.95514532  0.81690124    -0.12900
F621        F  0.33767179  0.06143009  0.75845013    -0.13400
C622        C  0.30507346  0.00926143  0.86484491     0.16300
C623        C  0.30342513  0.00658123  0.89545755     0.25700
C624        C  0.32909056  0.00160690  0.91220264    -0.40600
C625        C  0.35633746  0.99933735  0.89747081     0.32700
C626        C  0.35779992  0.00191178  0.86687454     0.14400
F627        F  0.28011370  0.01383589  0.84911307    -0.12900
F628        F  0.38163647  0.99440595  0.91252576    -0.13400
F629        F  0.27671479  0.00909029  0.90859213    -0.15700
F630        F  0.38420580  0.99942681  0.85311568    -0.14300
F631        F  0.33412721  0.06033089  0.81819144    -0.14300
F632        F  0.33692967  0.95535459  0.75750014    -0.15700
C633        C  0.14000943  0.99418351  0.65266689     0.14400
C634        C  0.15515782  0.00378036  0.67774484     0.01300
C635        C  0.13926847  0.01192927  0.70294917     0.16300
C636        C  0.10847023  0.01084120  0.70293858     0.25700
C637        C  0.09311612  0.00195657  0.67748777    -0.40600
C638        C  0.10930249  0.99336452  0.65244585     0.32800
C639        C  0.18760089  0.00509073  0.67732883     0.01400
F640        F  0.15362666  0.02080638  0.72758038    -0.12900
F641        F  0.09546794  0.98378295  0.62777389    -0.13400
C642        C  0.20214970  0.03216790  0.67464647     0.16300
C643        C  0.23284114  0.03318528  0.67205878     0.25700
C644        C  0.24953270  0.00700416  0.67219511    -0.40600
C645        C  0.23465821  0.97992183  0.67557584     0.32700
C646        C  0.20403348  0.97905315  0.67798623     0.14400
F647        F  0.18650957  0.05758978  0.67384023    -0.12900
F648        F  0.24963138  0.95411530  0.67666167    -0.13400
F649        F  0.24605887  0.05980008  0.66912574    -0.15700
F650        F  0.19031306  0.95268943  0.68096692    -0.14300
F651        F  0.15506075  0.98591564  0.62820151    -0.14300
F652        F  0.09373904  0.01909654  0.72759728    -0.15700
C653        C  0.67387600  0.02443249  0.46229171     0.14400
C654        C  0.66664950  0.99900823  0.47833505     0.01300
C655        C  0.65786968  0.97360036  0.46317862     0.16300
C656        C  0.65653913  0.97346653  0.43246263     0.25700
C657        C  0.66381725  0.99889600  0.41621072    -0.40600
C658        C  0.67241250  0.02444256  0.43153981     0.32800
C659        C  0.66797297  0.99898431  0.51088598     0.01400
F660        F  0.65004938  0.94897699  0.47820661    -0.12900
F661        F  0.68000105  0.04933464  0.41685279    -0.13400
C662        C  0.65134572  0.01932630  0.52716316     0.16300
C663        C  0.65232379  0.01914537  0.55789191     0.25700
C664        C  0.66957442  0.99830427  0.57286865    -0.40600
C665        C  0.68609843  0.97784064  0.55663323     0.32700
C666        C  0.68549595  0.97834324  0.52585677     0.14400
F667        F  0.63361125  0.03894415  0.51329021    -0.12900
F668        F  0.70354803  0.95799058  0.57054128    -0.13400
F669        F  0.63572185  0.03882001  0.57305005    -0.15700
F670        F  0.70246007  0.95904101  0.51062828    -0.14300
F671        F  0.68295244  0.04912835  0.47641425    -0.14300
F672        F  0.64778707  0.94843241  0.41874945    -0.15700
C673        C  0.53817127  0.03043592  0.67141134     0.14400
C674        C  0.52133383  0.00497773  0.66665496     0.01300
C675        C  0.53577878  0.97825445  0.66098565     0.16300
C676        C  0.56649379  0.97700149  0.65991122     0.25700
C677        C  0.58350003  0.00256384  0.66433913    -0.40600
C678        C  0.56889213  0.02931246  0.67018429     0.32800
C679        C  0.48872924  0.00633031  0.66725571     0.01400
F680        F  0.52008337  0.95338506  0.65581397    -0.12900
F681        F  0.58423736  0.05446064  0.67503625    -0.13400
C682        C  0.47352008  0.02562427  0.64841749     0.16300
C683        C  0.44275309  0.02665649  0.64871413     0.25700
C684        C  0.42668595  0.00799180  0.66742264    -0.40600
C685        C  0.44185691  0.98869195  0.68624087     0.32700
C686        C  0.47261012  0.98806886  0.68636600     0.14400
F687        F  0.48847000  0.04286937  0.62911383    -0.12900
F688        F  0.42687266  0.97093630  0.70505710    -0.13400
F689        F  0.42863348  0.04507427  0.62991184    -0.15700
F690        F  0.48668282  0.96993232  0.70548412    -0.14300
F691        F  0.52483418  0.05639487  0.67773504    -0.14300
F692        F  0.57945821  0.95073749  0.65411040    -0.15700
C693        C  0.80754400  0.01583096  0.64534631     0.14400
C694        C  0.82207827  0.99615968  0.66418392     0.01300
C695        C  0.80569215  0.97586138  0.68071760     0.16300
C696        C  0.77501459  0.97550166  0.67873274     0.25700
C697        C  0.76034774  0.99583120  0.66054829    -0.40600
C698        C  0.77687826  0.01583641  0.64370031     0.32800
C699        C  0.85437147  0.99704572  0.66663557     0.01400
F700        F  0.81945876  0.95642268  0.69874674    -0.12900
F701        F  0.76334250  0.03515429  0.62537642    -0.13400
C702        C  0.86775848  0.00670200  0.69272076     0.16300
C703        C  0.89840812  0.00843726  0.69467818     0.25700
C704        C  0.91611835  0.00046378  0.67049432    -0.40600
C705        C  0.90245636  0.99057301  0.64444408     0.32700
C706        C  0.87187297  0.98892761  0.64258602     0.14400
F707        F  0.85106188  0.01505866  0.71606013    -0.12900
F708        F  0.91863950  0.98193993  0.62084352    -0.13400
F709        F  0.91064136  0.01850340  0.71999312    -0.15700
F710        F  0.85926811  0.97905892  0.61736802    -0.14300
F711        F  0.82310145  0.03540791  0.62897671    -0.14300
F712        F  0.75962944  0.95601436  0.69538047    -0.15700
C713        C  0.66979874  0.02810338  0.79549646     0.14400
C714        C  0.67596261  0.00248687  0.81149894     0.01300
C715        C  0.68202079  0.97620503  0.79655655     0.16300
C716        C  0.68141404  0.97537738  0.76582920     0.25700
C717        C  0.67493777  0.00098685  0.74958807    -0.40600
C718        C  0.66940069  0.02744925  0.76478505     0.32800
C719        C  0.67513804  0.00294298  0.84385693     0.01400
F720        F  0.68793175  0.95120412  0.81181409    -0.12900
F721        F  0.66295553  0.05261315  0.75002940    -0.13400
C722        C  0.64833553  0.00710685  0.85851055     0.16300
C723        C  0.64719683  0.00669203  0.88920675     0.25700
C724        C  0.67301449  0.00222036  0.90580247    -0.40600
C725        C  0.69998232  0.99847745  0.89085549     0.32700
C726        C  0.70094508  0.99874380  0.86013289     0.14400
F727        F  0.62312968  0.01100126  0.84298643    -0.12900
F728        F  0.72546131  0.99426138  0.90582798    -0.13400
F729        F  0.62075057  0.01059675  0.90253876    -0.15700
F730        F  0.72712075  0.99506670  0.84620283    -0.14300
F731        F  0.66417651  0.05377069  0.80969760    -0.14300
F732        F  0.68739691  0.94956597  0.75205738    -0.15700
C733        C  0.30117509  0.86446481  0.99907371     0.14400
C734        C  0.32802084  0.84961031  0.00223161     0.01300
C735        C  0.35400406  0.86578531  0.00576453     0.16300
C736        C  0.35332449  0.89647805  0.00588889     0.25700
C737        C  0.32644806  0.91166187  0.00252672    -0.40600
C738        C  0.30033486  0.89521863  0.99932164     0.32800
C739        C  0.32908485  0.81718581  0.00202099     0.01400
F740        F  0.38021062  0.85175895  0.00866237    -0.12900
F741        F  0.27390339  0.90876835  0.99628783    -0.13400
C742        C  0.32192911  0.80148553  0.97643248     0.16300
C743        C  0.32399461  0.77079648  0.97598802     0.25700
C744        C  0.33306274  0.75530339  0.00131126    -0.40600
C745        C  0.34004004  0.77125626  0.02697552     0.32700
C746        C  0.33810702  0.80189306  0.02725692     0.14400
F747        F  0.31336158  0.81596173  0.95172956    -0.12900
F748        F  0.34908173  0.75731056  0.05180929    -0.13400
F749        F  0.31669439  0.75632194  0.95090244    -0.15700
F750        F  0.34482263  0.81670681  0.05231128    -0.14300
F751        F  0.27573237  0.84912491  0.99613201    -0.14300
F752        F  0.37906350  0.91119445  0.00931587    -0.15700
C753        C  0.13565444  0.68937166  0.00366691     0.14400
C754        C  0.15215538  0.66356245  0.99991132     0.01300
C755        C  0.13746962  0.63658454  0.99664324     0.16300
C756        C  0.10672855  0.63545556  0.99668970     0.25700
C757        C  0.09004483  0.66137254  0.00008702    -0.40600
C758        C  0.10496068  0.68833098  0.00386442     0.32800
C759        C  0.18468259  0.66479777  0.99958544     0.01400
F760        F  0.15295890  0.61121458  0.99379807    -0.12900
F761        F  0.08995522  0.71383311  0.00787964    -0.13400
C762        C  0.20000404  0.67637188  0.02376405     0.16300
C763        C  0.23068870  0.67735450  0.02365918     0.25700
C764        C  0.24673620  0.66662083  0.99937884    -0.40600
C765        C  0.23131050  0.65542426  0.97495482     0.32700
C766        C  0.20055381  0.65450835  0.97510652     0.14400
F767        F  0.18523107  0.68627146  0.04778853    -0.12900
F768        F  0.24591964  0.64478381  0.95115626    -0.13400
F769        F  0.24464112  0.68911948  0.04730064    -0.15700
F770        F  0.18620804  0.64379844  0.95120274    -0.14300
F771        F  0.14930281  0.71576803  0.00666551    -0.14300
F772        F  0.09341688  0.60896514  0.99317351    -0.15700
C773        C  0.46852556  0.65209769  0.03134557     0.14400
C774        C  0.48550682  0.66493680  0.00896980     0.01300
C775        C  0.47144499  0.67831598  0.98493114     0.16300
C776        C  0.44076041  0.67881026  0.98320849     0.25700
C777        C  0.42362395  0.66606346  0.00565683    -0.40600
C778        C  0.43783313  0.65264678  0.02974012     0.32800
C779        C  0.51793209  0.66405842  0.01034055     0.01400
F780        F  0.48752172  0.69132855  0.96334161    -0.12900
F781        F  0.42205322  0.63931592  0.05135638    -0.13400
C782        C  0.53384600  0.64876218  0.98875636     0.16300
C783        C  0.56454522  0.64897298  0.98904362     0.25700
C784        C  0.57987454  0.66440379  0.01105493    -0.40600
C785        C  0.56387392  0.67913918  0.03312745     0.32700
C786        C  0.53310334  0.67900876  0.03270754     0.14400
F787        F  0.51956153  0.63340634  0.96750270    -0.12900
F788        F  0.57796717  0.69455478  0.05446918    -0.13400
F789        F  0.57927565  0.63363945  0.96805202    -0.15700
F790        F  0.51809201  0.69420318  0.05360381    -0.14300
F791        F  0.48171344  0.63844526  0.05441873    -0.14300
F792        F  0.42785907  0.69236535  0.95992333    -0.15700
C793        C  0.68076541  0.79888567  0.97549823     0.14400
C794        C  0.66829214  0.81653605  0.99752998     0.01300
C795        C  0.65512024  0.80315960  0.02212521     0.16300
C796        C  0.65480201  0.77250516  0.02489010     0.25700
C797        C  0.66754354  0.75474922  0.00297081    -0.40600
C798        C  0.68035489  0.76825412  0.97813541     0.32800
C799        C  0.66969632  0.84893707  0.99532046     0.01400
F800        F  0.64224989  0.81986495  0.04328926    -0.12900
F801        F  0.69331519  0.75184285  0.95678988    -0.13400
C802        C  0.65464261  0.86389500  0.97282734     0.16300
C803        C  0.65510987  0.89466865  0.97166305     0.25700
C804        C  0.67116264  0.91077407  0.99259825    -0.40600
C805        C  0.68695477  0.89573883  0.01449086     0.32700
C806        C  0.68599699  0.86505892  0.01600444     0.14400
F807        F  0.63903895  0.84870121  0.95240242    -0.12900
F808        F  0.70241431  0.91084355  0.03509138    -0.13400
F809        F  0.64026585  0.90873724  0.94988719    -0.15700
F810        F  0.70100639  0.85100526  0.03767068    -0.14300
F811        F  0.69404334  0.81137616  0.95179657    -0.14300
F812        F  0.64142482  0.76020322  0.04862833    -0.15700
C813        C  0.80225320  0.65888957  0.97965524     0.14400
C814        C  0.81875474  0.66152655  0.00552967     0.01300
C815        C  0.80433929  0.66583877  0.03248596     0.16300
C816        C  0.77364357  0.66780945  0.03352572     0.25700
C817        C  0.75686633  0.66531329  0.00751018    -0.40600
C818        C  0.77163771  0.66070029  0.98055613     0.32800
C819        C  0.85111212  0.66079179  0.00402085     0.01400
F820        F  0.82007327  0.66868806  0.05771338    -0.12900
F821        F  0.75657460  0.65768725  0.95494633    -0.13400
C822        C  0.86631548  0.68407291  0.99066930     0.16300
C823        C  0.89693201  0.68342363  0.98854623     0.25700
C824        C  0.91290726  0.65926339  0.99958834    -0.40600
C825        C  0.89748356  0.63583202  0.01287845     0.32700
C826        C  0.86681237  0.63670056  0.01517406     0.14400
F827        F  0.85141066  0.70761154  0.97990836    -0.12900
F828        F  0.91205127  0.61237466  0.02425180    -0.13400
F829        F  0.91084922  0.70636676  0.97540029    -0.15700
F830        F  0.85237402  0.61390815  0.02801980    -0.14300
F831        F  0.81589579  0.65430330  0.95344950    -0.14300
F832        F  0.76049491  0.67235429  0.05998360    -0.15700
C833        C  0.34711052  0.53141364  0.98044838     0.14400
C834        C  0.33467741  0.51628871  0.00444896     0.01300
C835        C  0.32301529  0.53246169  0.02808553     0.16300
C836        C  0.32368662  0.56316811  0.02770791     0.25700
C837        C  0.33547280  0.57835336  0.00335555    -0.40600
C838        C  0.34717379  0.56212551  0.97971648     0.32800
C839        C  0.33349647  0.48371795  0.00449797     0.01400
F840        F  0.31021110  0.51855915  0.05125532    -0.12900
F841        F  0.35920619  0.57590851  0.95606603    -0.13400
C842        C  0.34459055  0.46752115  0.02843336     0.16300
C843        C  0.34377958  0.43679674  0.02812761     0.25700
C844        C  0.33256207  0.42169835  0.00355318    -0.40600
C845        C  0.32123066  0.43792705  0.97974119     0.32700
C846        C  0.32137474  0.46861678  0.98039278     0.14400
F847        F  0.35695571  0.48140802  0.05179915    -0.12900
F848        F  0.30938032  0.42412719  0.95605443    -0.13400
F849        F  0.35479785  0.42185314  0.05154320    -0.15700
F850        F  0.30921460  0.48362452  0.95759129    -0.14300
F851        F  0.35961925  0.51640748  0.95783312    -0.14300
F852        F  0.31203023  0.57798589  0.05089074    -0.15700
C853        C  0.19723431  0.32493536  0.02438712     0.14400
C854        C  0.18196636  0.33398840  0.99921609     0.01300
C855        C  0.19757895  0.34316172  0.97422653     0.16300
C856        C  0.22831775  0.34305932  0.97428340     0.25700
C857        C  0.24386975  0.33403575  0.99956517    -0.40600
C858        C  0.22792976  0.32503778  0.02466593     0.32800
C859        C  0.14964597  0.33389598  0.99909445     0.01400
F860        F  0.18297192  0.35205046  0.94972833    -0.12900
F861        F  0.24196077  0.31588591  0.04939904    -0.13400
C862        C  0.13415279  0.36029450  0.00236292     0.16300
C863        C  0.10345607  0.36030752  0.00231643     0.25700
C864        C  0.08771404  0.33378482  0.99877700    -0.40600
C865        C  0.10353851  0.30726576  0.99568838     0.32700
C866        C  0.13426329  0.30739256  0.99593277     0.14400
F867        F  0.14883681  0.38605502  0.00589012    -0.12900
F868        F  0.08942568  0.28120163  0.99208269    -0.13400
F869        F  0.08926821  0.38632895  0.00593287    -0.15700
F870        F  0.14909273  0.28167267  0.99272669    -0.14300
F871        F  0.18232209  0.31618580  0.04878434    -0.14300
F872        F  0.24275938  0.35220644  0.94975496    -0.15700
C873        C  0.30007491  0.13537583  0.00612836     0.14400
C874        C  0.32503287  0.15054906  0.99611752     0.01300
C875        C  0.34967577  0.13468241  0.98647128     0.16300
C876        C  0.34959067  0.10398673  0.98728148     0.25700
C877        C  0.32474464  0.08865324  0.99767228    -0.40600
C878        C  0.29984046  0.10466132  0.00678612     0.32800
C879        C  0.32581398  0.18295713  0.99665217     0.01400
F880        F  0.37409649  0.14899086  0.97690110    -0.12900
F881        F  0.27552388  0.09066408  0.01704591    -0.13400
C882        C  0.32407013  0.19792857  0.02355947     0.16300
C883        C  0.32581079  0.22856120  0.02438748     0.25700
C884        C  0.32932976  0.24486507  0.99816743    -0.40600
C885        C  0.33069991  0.22965549  0.97112794     0.32700
C886        C  0.32901805  0.19897153  0.97044427     0.14400
F887        F  0.32125207  0.18276910  0.04918112    -0.12900
F888        F  0.33370996  0.24433159  0.94525335    -0.13400
F889        F  0.32400478  0.24212596  0.05094149    -0.15700
F890        F  0.33023436  0.18483683  0.94414498    -0.14300
F891        F  0.27591777  0.15036916  0.01527312    -0.14300
F892        F  0.37373617  0.08931606  0.97758660    -0.15700
C893        C  0.65532647  0.47018050  0.98588792     0.14400
C894        C  0.66926155  0.48346229  0.01013774     0.01300
C895        C  0.68180651  0.46552685  0.03195632     0.16300
C896        C  0.68036586  0.43488960  0.02963246     0.25700
C897        C  0.66674793  0.42157741  0.00516865    -0.40600
C898        C  0.65435980  0.43956002  0.98325560     0.32800
C899        C  0.67121304  0.51597595  0.01211602     0.01400
F900        F  0.69624467  0.47766235  0.05510862    -0.12900
F901        F  0.64076580  0.42754440  0.95953749    -0.13400
C902        C  0.66075594  0.53114062  0.03703932     0.16300
C903        C  0.66116306  0.56196215  0.03783862     0.25700
C904        C  0.67158896  0.57807676  0.01350618    -0.40600
C905        C  0.68303159  0.56275655  0.98910174     0.32700
C906        C  0.68301716  0.53209928  0.98852972     0.14400
F907        F  0.64912667  0.51616167  0.06014942    -0.12900
F908        F  0.69449582  0.57744387  0.96570732    -0.13400
F909        F  0.65029250  0.57596323  0.06189067    -0.15700
F910        F  0.69464722  0.51809663  0.96482345    -0.14300
F911        F  0.64227639  0.48692221  0.96486119    -0.14300
F912        F  0.69318561  0.41827220  0.05089602    -0.15700
C913        C  0.46832875  0.32510670  0.97887372     0.14400
C914        C  0.48316955  0.33247803  0.00494600     0.01300
C915        C  0.46683687  0.33977272  0.03012417     0.16300
C916        C  0.43608143  0.33987769  0.02922727     0.25700
C917        C  0.42105404  0.33259947  0.00305685    -0.40600
C918        C  0.43759119  0.32519288  0.97787807     0.32800
C919        C  0.51570263  0.33326097  0.00549426     0.01400
F920        F  0.48071537  0.34754961  0.05540087    -0.12900
F921        F  0.42409830  0.31759782  0.95234159    -0.13400
C922        C  0.53093562  0.35283558  0.98704960     0.16300
C923        C  0.56164504  0.35278706  0.98631139     0.25700
C924        C  0.57768071  0.33335854  0.00425489    -0.40600
C925        C  0.56248396  0.31432635  0.02336619     0.32700
C926        C  0.53167318  0.31417854  0.02387066     0.14400
F927        F  0.51598348  0.37220073  0.96991355    -0.12900
F928        F  0.57742788  0.29506991  0.04062683    -0.13400
F929        F  0.57576236  0.37216163  0.96844973    -0.15700
F930        F  0.51740651  0.29479711  0.04159462    -0.14300
F931        F  0.48370050  0.31746372  0.95440273    -0.14300
F932        F  0.42109304  0.34782921  0.05383474    -0.15700
C933        C  0.86332751  0.31200337  0.99610354     0.14400
C934        C  0.84881564  0.33795307  0.98782349     0.01300
C935        C  0.86537934  0.36280756  0.98006126     0.16300
C936        C  0.89612144  0.36199196  0.98150706     0.25700
C937        C  0.91077905  0.33615395  0.99053532    -0.40600
C938        C  0.89399681  0.31102687  0.99737280     0.32800
C939        C  0.81639374  0.33928409  0.98926242     0.01400
F940        F  0.85175352  0.38810772  0.97193211    -0.12900
F941        F  0.90714446  0.28570910  0.00618269    -0.13400
C942        C  0.80234138  0.33645075  0.01659210     0.16300
C943        C  0.77173240  0.33534446  0.01836445     0.25700
C944        C  0.75440312  0.33700371  0.99268552    -0.40600
C945        C  0.76864561  0.34085178  0.96527479     0.32700
C946        C  0.79940317  0.34202770  0.96364683     0.14400
F947        F  0.81843020  0.33467013  0.04169699    -0.12900
F948        F  0.75295057  0.34332115  0.93998144    -0.13400
F949        F  0.75921154  0.33235705  0.04534243    -0.15700
F950        F  0.81262644  0.34507690  0.93699932    -0.14300
F951        F  0.84763508  0.28762145  0.00330187    -0.14300
F952        F  0.91148652  0.38648830  0.97399348    -0.15700
C953        C  0.65582220  0.19831204  0.96915741     0.14400
C954        C  0.66702688  0.18240024  0.99314526     0.01300
C955        C  0.67859831  0.19756362  0.01732226     0.16300
C956        C  0.67870350  0.22829278  0.01779923     0.25700
C957        C  0.66728399  0.24455994  0.99392037    -0.40600
C958        C  0.65603186  0.22917311  0.96944187     0.32800
C959        C  0.66704386  0.14990983  0.99308297     0.01400
F960        F  0.68974479  0.18249441  0.04059247    -0.12900
F961        F  0.64466872  0.24389827  0.94606833    -0.13400
C962        C  0.69241312  0.13452681  0.98473287     0.16300
C963        C  0.69304473  0.10378169  0.98583647     0.25700
C964        C  0.66818633  0.08779916  0.99535439    -0.40600
C965        C  0.64275657  0.10344523  0.00382735     0.32700
C966        C  0.64226210  0.13424035  0.00271452     0.14400
F967        F  0.71662833  0.14937799  0.97549454    -0.12900
F968        F  0.61853074  0.08904650  0.01373875    -0.13400
F969        F  0.71789885  0.08971756  0.97711157    -0.15700
F970        F  0.61772807  0.14884941  0.01145480    -0.14300
F971        F  0.64467245  0.18390765  0.94549764    -0.14300
F972        F  0.69037283  0.24206332  0.04159056    -0.15700
loop_ 
_geom_bond_atom_site_label_1 
_geom_bond_atom_site_label_2 
_geom_bond_distance 
_geom_bond_site_symmetry_2 
_ccdc_geom_bond_type 
O1            V9   1.892       .  S
O1           C11   1.263   1_554  A
O2            V9   1.893       .  S
O2           C12   1.263       .  A
O3            V9   1.904       .  S
O3           C13   1.265       .  A
O4            V9   1.898       .  S
O4           C14   1.265   1_554  A
O5           V10   1.900       .  S
O5           C14   1.264       .  A
O6           V10   1.896       .  S
O6           C13   1.264   1_556  A
O7           V10   1.904       .  S
O7           C12   1.266   1_556  A
O8           V10   1.912       .  S
O8           C11   1.268       .  A
V9           V10   2.085   1_554  T
C11         C957   1.487       .  S
C12         C897   1.480       .  S
C13         C924   1.475       .  S
C14         C944   1.487       .  S
O15          V23   1.900       .  S
O15          C25   1.265       .  A
O16          V23   1.903       .  S
O16          C26   1.266   1_556  A
O17          V23   1.897       .  S
O17          C27   1.264       .  A
O18          V23   1.895       .  S
O18          C28   1.264   1_556  A
O19          V24   1.896       .  S
O19          C28   1.264       .  A
O20          V24   1.895       .  S
O20          C27   1.264   1_554  A
O21          V24   1.896       .  S
O21          C26   1.264       .  A
O22          V24   1.894       .  S
O22          C25   1.263   1_554  A
V23          V24   2.085   1_556  T
C25         C857   1.480       .  S
C26         C917   1.485       .  S
C27         C884   1.483       .  S
C28         C844   1.476       .  S
O29          V37   1.901       .  S
O29          C39   1.265       .  A
O30          V37   1.899       .  S
O30          C40   1.264       .  A
O31          V37   1.909       .  S
O31          C41   1.267       .  A
O32          V37   1.907       .  S
O32          C42   1.267       .  A
O33          V38   1.891       .  S
O33          C42   1.262   1_556  A
O34          V38   1.887       .  S
O34          C41   1.262   1_556  A
O35          V38   1.896       .  S
O35          C40   1.264   1_556  A
O36          V38   1.893       .  S
O36          C39   1.264   1_556  A
V37          V38   2.086   1_554  T
C39         C817   1.485       .  S
C40         C784   1.477       .  S
C41         C904   1.480       .  S
C42         C797   1.479       .  S
O43          V51   1.892       .  S
O43          C53   1.263       .  A
O44          V51   1.894       .  S
O44          C54   1.263       .  A
O45          V51   1.893       .  S
O45          C55   1.264       .  A
O46          V51   1.893       .  S
O46          C56   1.263       .  A
O47          V52   1.899       .  S
O47          C56   1.265   1_556  A
O48          V52   1.900       .  S
O48          C55   1.265   1_556  A
O49          V52   1.902       .  S
O49          C54   1.266   1_556  A
O50          V52   1.903       .  S
O50          C53   1.265   1_556  A
V51          V52   2.085   1_554  T
C53         C764   1.481   1_554  S
C54         C777   1.479       .  S
C55         C744   1.481       .  S
C56         C837   1.479       .  S
O57          V65   1.896       .  S
O57          C67   1.263       .  A
O58          V65   1.900       .  S
O58          C68   1.265   1_565  A
O59          V65   1.902       .  S
O59          C69   1.265       .  A
O60          V65   1.898       .  S
O60          C70   1.265   1_565  A
O61          V66   1.892       .  S
O61          C70   1.263       .  A
O62          V66   1.892       .  S
O62          C69   1.262   1_545  A
O63          V66   1.899       .  S
O63          C68   1.265       .  A
O64          V66   1.899       .  S
O64          C67   1.265   1_545  A
V65          V66   2.085   1_565  T
C67         C697   1.473       .  S
C68         C677   1.487       .  S
C69         C664   1.472       .  S
C70         C717   1.478       .  S
O71          V79   1.894       .  S
O71          C81   1.264   1_565  A
O72          V79   1.897       .  S
O72          C82   1.263   1_565  A
O73          V79   1.891       .  S
O73          C83   1.264   1_565  A
O74          V79   1.899       .  S
O74          C84   1.264   1_565  A
O75          V80   1.897       .  S
O75          C84   1.264       .  A
O76          V80   1.899       .  S
O76          C83   1.264       .  A
O77          V80   1.905       .  S
O77          C82   1.265       .  A
O78          V80   1.906       .  S
O78          C81   1.267       .  A
V79          V80   2.085   1_565  T
C81         C644   1.489       .  S
C82         C684   1.475       .  S
C83         C617   1.483       .  S
C84         C597   1.478       .  S
O85          V93   1.905       .  S
O85          C95   1.266       .  A
O86          V93   1.909       .  S
O86          C96   1.267       .  A
O87          V93   1.901       .  S
O87          C97   1.265       .  A
O88          V93   1.902       .  S
O88          C98   1.265       .  A
O89          V94   1.895       .  S
O89          C98   1.263   1_565  A
O90          V94   1.896       .  S
O90          C97   1.264   1_565  A
O91          V94   1.892       .  S
O91          C96   1.263   1_565  A
O92          V94   1.891       .  S
O92          C95   1.263   1_565  A
V93          V94   2.085   1_545  T
C95         C557   1.484       .  S
C96         C537   1.481       .  S
C97         C577   1.484       .  S
C98         C604   1.477       .  S
O99         V107   1.892       .  S
O99         C109   1.263   1_545  A
O100        V107   1.894       .  S
O100        C110   1.263       .  A
O101        V107   1.900       .  S
O101        C111   1.265   1_545  A
O102        V107   1.899       .  S
O102        C112   1.265   1_545  A
O103        V108   1.893       .  S
O103        C112   1.263       .  A
O104        V108   1.894       .  S
O104        C111   1.264       .  A
O105        V108   1.908       .  S
O105        C110   1.267   1_565  A
O106        V108   1.908       .  S
O106        C109   1.267       .  A
V107        V108   2.084   1_545  T
C109        C497   1.488       .  S
C110        C544   1.483       .  S
C111        C657   1.483       .  S
C112        C524   1.482       .  S
O113        V121   1.900       .  S
O113        C123   1.265   1_455  A
O114        V121   1.900       .  S
O114        C124   1.264   1_455  A
O115        V121   1.895       .  S
O115        C125   1.263   1_455  A
O116        V121   1.899       .  S
O116        C126   1.265   1_455  A
O117        V122   1.901       .  S
O117        C126   1.265       .  A
O118        V122   1.899       .  S
O118        C125   1.265       .  A
O119        V122   1.898       .  S
O119        C124   1.264       .  A
O120        V122   1.903       .  S
O120        C123   1.266       .  A
V121        V122   2.083   1_455  T
C123        C457   1.490       .  S
C124        C437   1.471       .  S
C125        C424   1.470       .  S
C126        C484   1.486       .  S
O127        V135   1.901       .  S
O127        C137   1.264       .  A
O128        V135   1.895       .  S
O128        C138   1.264       .  A
O129        V135   1.903       .  S
O129        C139   1.266       .  A
O130        V135   1.905       .  S
O130        C140   1.265       .  A
O131        V136   1.897       .  S
O131        C140   1.263   1_655  A
O132        V136   1.896       .  S
O132        C139   1.264   1_655  A
O133        V136   1.897       .  S
O133        C138   1.264   1_655  A
O134        V136   1.893       .  S
O134        C137   1.263   1_655  A
V135        V136   2.086   1_455  T
C137        C384   1.474       .  S
C138        C364   1.484   1_455  S
C139        C444   1.488       .  S
C140        C404   1.472       .  S
O141        V149   1.898       .  S
O141        C151   1.264       .  A
O142        V149   1.900       .  S
O142        C152   1.265       .  A
O143        V149   1.895       .  S
O143        C153   1.263       .  A
O144        V149   1.894       .  S
O144        C154   1.264       .  A
O145        V150   1.899       .  S
O145        C154   1.265   1_655  A
O146        V150   1.901       .  S
O146        C153   1.265   1_655  A
O147        V150   1.894       .  S
O147        C152   1.263   1_655  A
O148        V150   1.898       .  S
O148        C151   1.264   1_655  A
V149        V150   2.086   1_455  T
C151        C344   1.476       .  S
C152        C417   1.484   1_455  S
C153        C304   1.475       .  S
C154        C317   1.482       .  S
O155        V163   1.905       .  S
O155        C165   1.266       .  A
O156        V163   1.900       .  S
O156        C166   1.265   1_655  A
O157        V163   1.896       .  S
O157        C167   1.264       .  A
O158        V163   1.898       .  S
O158        C168   1.263       .  A
O159        V164   1.897       .  S
O159        C168   1.264   1_455  A
O160        V164   1.899       .  S
O160        C167   1.265   1_455  A
O161        V164   1.897       .  S
O161        C166   1.264       .  A
O162        V164   1.895       .  S
O162        C165   1.264   1_455  A
V163        V164   2.084   1_655  T
C165        C264   1.485       .  S
C166        C297   1.481       .  S
C167        C284   1.485       .  S
C168        C357   1.471       .  S
O169        V177   1.896   1_455  S
O169        C179   1.263       .  A
O170        V177   1.897   1_554  S
O170        C180   1.264       .  A
O171        V177   1.902       .  S
O171        C181   1.266       .  A
O172        V177   1.898   1_455  S
O172        C182   1.265       .  A
O173        V178   1.893   1_455  S
O173        C182   1.264       .  A
O174        V178   1.896       .  S
O174        C181   1.264       .  A
O175        V178   1.898   1_554  S
O175        C180   1.265       .  A
O176        V178   1.896   1_455  S
O176        C179   1.263       .  A
V177        V178   2.085       .  T
C179        C377   1.470       .  S
C180        C277   1.483       .  S
C181        C937   1.482       .  S
C182        C864   1.482       .  S
O183        V191   1.894       .  S
O183        C193   1.264       .  A
O184        V191   1.901   1_556  S
O184        C194   1.264       .  A
O185        V191   1.903   1_556  S
O185        C195   1.266       .  A
O186        V191   1.900   1_655  S
O186        C196   1.265   1_554  A
O187        V192   1.894   1_655  S
O187        C196   1.264       .  A
O188        V192   1.893       .  S
O188        C195   1.263       .  A
O189        V192   1.899       .  S
O189        C194   1.265       .  A
O190        V192   1.901   1_654  S
O190        C193   1.265   1_655  A
V191        V192   2.084   1_554  T
C193        C337   1.486   1_455  S
C194        C477   1.478       .  S
C195        C757   1.485   1_556  S
C196        C824   1.480       .  S
O197        V205   1.900   1_545  S
O197        C207   1.265       .  A
O198        V205   1.901       .  S
O198        C208   1.265       .  A
O199        V205   1.906   1_455  S
O199        C209   1.266       .  A
O200        V205   1.907       .  S
O200        C210   1.267       .  A
O201        V206   1.891       .  S
O201        C210   1.263       .  A
O202        V206   1.891   1_455  S
O202        C209   1.263       .  A
O203        V206   1.896       .  S
O203        C208   1.264       .  A
O204        V206   1.898   1_545  S
O204        C207   1.265       .  A
V205        V206   2.085       .  T
C207        C257   1.483       .  S
C208        C324   1.485       .  S
C209        C564   1.481       .  S
C210        C504   1.485       .  S
O211        V219   1.903   1_565  S
O211        C221   1.266       .  A
O212        V219   1.904       .  S
O212        C222   1.264       .  A
O213        V219   1.904   1_655  S
O213        C223   1.266       .  A
O214        V219   1.903       .  S
O214        C224   1.265       .  A
O215        V220   1.896       .  S
O215        C224   1.264       .  A
O216        V220   1.890   1_655  S
O216        C223   1.263       .  A
O217        V220   1.901       .  S
O217        C222   1.264       .  A
O218        V220   1.899   1_565  S
O218        C221   1.264       .  A
V219        V220   2.085       .  T
C221        C464   1.487       .  S
C222        C397   1.472       .  S
C223        C704   1.480       .  S
C224        C637   1.483       .  S
O225        V233   1.900   1_554  S
O225        C235   1.265       .  A
O226        V233   1.895   1_545  S
O226        C236   1.264       .  A
O227        V233   1.900       .  S
O227        C237   1.264       .  A
O228        V233   1.903   1_545  S
O228        C238   1.265       .  A
O229        V234   1.900   1_545  S
O229        C238   1.265       .  A
O230        V234   1.899       .  S
O230        C237   1.264       .  A
O231        V234   1.893       .  S
O231        C236   1.264   1_565  A
O232        V234   1.892   1_554  S
O232        C235   1.263       .  A
V233        V234   2.084       .  T
C235        C517   1.481       .  S
C236        C724   1.481       .  S
C237        C804   1.472       .  S
C238        C964   1.487       .  S
O239        V247   1.894   1_565  S
O239        C249   1.263       .  A
O240        V247   1.894       .  S
O240        C250   1.264   1_554  A
O241        V247   1.897       .  S
O241        C251   1.264       .  A
O242        V247   1.895   1_566  S
O242        C252   1.264       .  A
O243        V248   1.898   1_565  S
O243        C252   1.264       .  A
O244        V248   1.899   1_554  S
O244        C251   1.264       .  A
O245        V248   1.896       .  S
O245        C250   1.264       .  A
O246        V248   1.900   1_564  S
O246        C249   1.266       .  A
V247        V248   2.085   1_554  T
C249        C737   1.485       .  S
C250        C877   1.476       .  S
C251        C584   1.476       .  S
C252        C624   1.483   1_565  S
C253        C254   1.402   1_455  A
C253        C258   1.400       .  A
C253        F271   1.358       .  S
C254        C259   1.474       .  S
C254        C255   1.401       .  A
C255        C256   1.398       .  A
C255        F260   1.358       .  S
C256        C257   1.410       .  A
C256        F272   1.358       .  S
C257        C258   1.411   1_655  A
C258        F261   1.358       .  S
C259        C262   1.401   1_655  A
C259        C266   1.402       .  A
C262        C263   1.397       .  A
C262        F267   1.358       .  S
C263        C264   1.411   1_455  A
C263        F269   1.358       .  S
C264        C265   1.411       .  A
C265        C266   1.401       .  A
C265        F268   1.358       .  S
C266        F270   1.358       .  S
C273        C274   1.403   1_655  A
C273        C278   1.397       .  A
C273        F291   1.358       .  S
C274        C279   1.477       .  S
C274        C275   1.403       .  A
C275        C276   1.398       .  A
C275        F280   1.358       .  S
C276        C277   1.411   1_455  A
C276        F292   1.358       .  S
C277        C278   1.410       .  A
C278        F281   1.358       .  S
C279        C282   1.403       .  A
C279        C286   1.402   1_455  A
C282        C283   1.399       .  A
C282        F287   1.358       .  S
C283        C284   1.412   1_455  A
C283        F289   1.358       .  S
C284        C285   1.411       .  A
C285        C286   1.397       .  A
C285        F288   1.358       .  S
C286        F290   1.358       .  S
C293        C294   1.404       .  A
C293        C298   1.399       .  A
C293        F311   1.358       .  S
C294        C299   1.479       .  S
C294        C295   1.404   1_455  A
C295        C296   1.397       .  A
C295        F300   1.358       .  S
C296        C297   1.409   1_655  A
C296        F312   1.358       .  S
C297        C298   1.410       .  A
C298        F301   1.358       .  S
C299        C302   1.405       .  A
C299        C306   1.405   1_455  A
C302        C303   1.399       .  A
C302        F307   1.358       .  S
C303        C304   1.408       .  A
C303        F309   1.358       .  S
C304        C305   1.406   1_455  A
C305        C306   1.397       .  A
C305        F308   1.358       .  S
C306        F310   1.358       .  S
C313        C314   1.403       .  A
C313        C318   1.396       .  A
C313        F331   1.358       .  S
C314        C319   1.477       .  S
C314        C315   1.404   1_455  A
C315        C316   1.399       .  A
C315        F320   1.358       .  S
C316        C317   1.410   1_655  A
C316        F332   1.358       .  S
C317        C318   1.410       .  A
C318        F321   1.358       .  S
C319        C322   1.402       .  A
C319        C326   1.404   1_455  A
C322        C323   1.396       .  A
C322        F327   1.358       .  S
C323        C324   1.411   1_455  A
C323        F329   1.358       .  S
C324        C325   1.412       .  A
C325        C326   1.400       .  A
C325        F328   1.358       .  S
C326        F330   1.358       .  S
C333        C334   1.405       .  A
C333        C338   1.401       .  A
C333        F351   1.358       .  S
C334        C339   1.481   1_655  S
C334        C335   1.403       .  A
C335        C336   1.395       .  A
C335        F340   1.358       .  S
C336        C337   1.410       .  A
C336        F352   1.358   1_655  S
C337        C338   1.412       .  A
C338        F341   1.358       .  S
C339        C342   1.405   1_455  A
C339        C346   1.406       .  A
C342        C343   1.399       .  A
C342        F347   1.358       .  S
C343        C344   1.408   1_655  A
C343        F349   1.358       .  S
C344        C345   1.406       .  A
C345        C346   1.397       .  A
C345        F348   1.358       .  S
C346        F350   1.358       .  S
C353        C354   1.406   1_455  A
C353        C358   1.395       .  A
C353        F371   1.358       .  S
C354        C359   1.482       .  S
C354        C355   1.408       .  A
C355        C356   1.400       .  A
C355        F360   1.358       .  S
C356        C357   1.406       .  A
C356        F372   1.358       .  S
C357        C358   1.404   1_655  A
C358        F361   1.358       .  S
C359        C362   1.405   1_655  A
C359        C366   1.405       .  A
C362        C363   1.396       .  A
C362        F367   1.358       .  S
C363        C364   1.410   1_455  A
C363        F369   1.358       .  S
C364        C365   1.411       .  A
C365        C366   1.398       .  A
C365        F368   1.358       .  S
C366        F370   1.358       .  S
C373        C374   1.402   1_655  A
C373        C378   1.396       .  A
C373        F391   1.358       .  S
C374        C379   1.469       .  S
C374        C375   1.402       .  A
C375        C376   1.398       .  A
C375        F380   1.358       .  S
C376        C377   1.407       .  A
C376        F392   1.358       .  S
C377        C378   1.405   1_455  A
C378        F381   1.358       .  S
C379        C382   1.403       .  A
C379        C386   1.401   1_455  A
C382        C383   1.400       .  A
C382        F387   1.358       .  S
C383        C384   1.408       .  A
C383        F389   1.358       .  S
C384        C385   1.408   1_455  A
C385        C386   1.395       .  A
C385        F388   1.358       .  S
C386        F390   1.358       .  S
C393        C394   1.404   1_655  A
C393        C398   1.400       .  A
C393        F411   1.358       .  S
C394        C399   1.477       .  S
C394        C395   1.404       .  A
C395        C396   1.401       .  A
C395        F400   1.358       .  S
C396        C397   1.405       .  A
C396        F412   1.358       .  S
C397        C398   1.405   1_455  A
C398        F401   1.358       .  S
C399        C402   1.404   1_455  A
C399        C406   1.404       .  A
C402        C403   1.401       .  A
C402        F407   1.358       .  S
C403        C404   1.406   1_655  A
C403        F409   1.358       .  S
C404        C405   1.404       .  A
C405        C406   1.400       .  A
C405        F408   1.358       .  S
C406        F410   1.358       .  S
C413        C414   1.405   1_455  A
C413        C418   1.398       .  A
C413        F431   1.358       .  S
C414        C419   1.481       .  S
C414        C415   1.404       .  A
C415        C416   1.396       .  A
C415        F420   1.358       .  S
C416        C417   1.411       .  A
C416        F432   1.358       .  S
C417        C418   1.410   1_655  A
C418        F421   1.358       .  S
C419        C422   1.407   1_655  A
C419        C426   1.406       .  A
C422        C423   1.398       .  A
C422        F427   1.358       .  S
C423        C424   1.405   1_455  A
C423        F429   1.358       .  S
C424        C425   1.405       .  A
C425        C426   1.397       .  A
C425        F428   1.358       .  S
C426        F430   1.358       .  S
C433        C434   1.407   1_455  A
C433        C438   1.400       .  A
C433        F451   1.358       .  S
C434        C439   1.483       .  S
C434        C435   1.407       .  A
C435        C436   1.397       .  A
C435        F440   1.358       .  S
C436        C437   1.403       .  A
C436        F452   1.358       .  S
C437        C438   1.405   1_655  A
C438        F441   1.358       .  S
C439        C442   1.405   1_655  A
C439        C446   1.404       .  A
C442        C443   1.400       .  A
C442        F447   1.358       .  S
C443        C444   1.411       .  A
C443        F449   1.358       .  S
C444        C445   1.412   1_455  A
C445        C446   1.397       .  A
C445        F448   1.358       .  S
C446        F450   1.358       .  S
C453        C454   1.402       .  A
C453        C458   1.401       .  A
C453        F471   1.358       .  S
C454        C459   1.477       .  S
C454        C455   1.401   1_655  A
C455        C456   1.399       .  A
C455        F460   1.358       .  S
C456        C457   1.413   1_455  A
C456        F472   1.358       .  S
C457        C458   1.413       .  A
C458        F461   1.358       .  S
C459        C462   1.402   1_655  A
C459        C466   1.402       .  A
C462        C463   1.400       .  A
C462        F467   1.358       .  S
C463        C464   1.411       .  A
C463        F469   1.358       .  S
C464        C465   1.413   1_455  A
C465        C466   1.400       .  A
C465        F468   1.358       .  S
C466        F470   1.358       .  S
C473        C474   1.403       .  A
C473        C478   1.397       .  A
C473        F491   1.358       .  S
C474        C479   1.477       .  S
C474        C475   1.404   1_455  A
C475        C476   1.402       .  A
C475        F480   1.358       .  S
C476        C477   1.409   1_655  A
C476        F492   1.358       .  S
C477        C478   1.407       .  A
C478        F481   1.358       .  S
C479        C482   1.402       .  A
C479        C486   1.403   1_455  A
C482        C483   1.399       .  A
C482        F487   1.358       .  S
C483        C484   1.412   1_455  A
C483        F489   1.358       .  S
C484        C485   1.411       .  A
C485        C486   1.400       .  A
C485        F488   1.358       .  S
C486        F490   1.358       .  S
C493        C494   1.400   1_545  A
C493        C498   1.397       .  A
C493        F511   1.358       .  S
C494        C499   1.475       .  S
C494        C495   1.402       .  A
C495        C496   1.401       .  A
C495        F500   1.358       .  S
C496        C497   1.412       .  A
C496        F512   1.357       .  S
C497        C498   1.413   1_565  A
C498        F501   1.358       .  S
C499        C502   1.403       .  A
C499        C506   1.400   1_565  A
C502        C503   1.401       .  A
C502        F507   1.358       .  S
C503        C504   1.410       .  A
C503        F509   1.358       .  S
C504        C505   1.412   1_565  A
C505        C506   1.397       .  A
C505        F508   1.358       .  S
C506        F510   1.358       .  S
C513        C514   1.399   1_545  A
C513        C518   1.395       .  A
C513        F531   1.358       .  S
C514        C519   1.469       .  S
C514        C515   1.401       .  A
C515        C516   1.398       .  A
C515        F520   1.358       .  S
C516        C517   1.411       .  A
C516        F532   1.358       .  S
C517        C518   1.411   1_565  A
C518        F521   1.358       .  S
C519        C522   1.400   1_565  A
C519        C526   1.400       .  A
C522        C523   1.396       .  A
C522        F527   1.358       .  S
C523        C524   1.410   1_545  A
C523        F529   1.358       .  S
C524        C525   1.413       .  A
C525        C526   1.398       .  A
C525        F528   1.358       .  S
C526        F530   1.358       .  S
C533        C534   1.408       .  A
C533        C538   1.403       .  A
C533        F551   1.358       .  S
C534        C539   1.485       .  S
C534        C535   1.404   1_545  A
C535        C536   1.396       .  A
C535        F540   1.358       .  S
C536        C537   1.408   1_565  A
C536        F552   1.358       .  S
C537        C538   1.408       .  A
C538        F541   1.358       .  S
C539        C542   1.405       .  A
C539        C546   1.407   1_545  A
C542        C543   1.399       .  A
C542        F547   1.358       .  S
C543        C544   1.410       .  A
C543        F549   1.358       .  S
C544        C545   1.408   1_545  A
C545        C546   1.400       .  A
C545        F548   1.358       .  S
C546        F550   1.358       .  S
C553        C554   1.402       .  A
C553        C558   1.400       .  A
C553        F571   1.358       .  S
C554        C559   1.473       .  S
C554        C555   1.400   1_545  A
C555        C556   1.396       .  A
C555        F560   1.358       .  S
C556        C557   1.412   1_565  A
C556        F572   1.358       .  S
C557        C558   1.411       .  A
C558        F561   1.358       .  S
C559        C562   1.401   1_545  A
C559        C566   1.403       .  A
C562        C563   1.396       .  A
C562        F567   1.358       .  S
C563        C564   1.410       .  A
C563        F569   1.358       .  S
C564        C565   1.409   1_565  A
C565        C566   1.400       .  A
C565        F568   1.358       .  S
C566        F570   1.358       .  S
C573        C574   1.403       .  A
C573        C578   1.400       .  A
C573        F591   1.358       .  S
C574        C579   1.474       .  S
C574        C575   1.401   1_545  A
C575        C576   1.397       .  A
C575        F580   1.358       .  S
C576        C577   1.411   1_565  A
C576        F592   1.358       .  S
C577        C578   1.411       .  A
C578        F581   1.358       .  S
C579        C582   1.403   1_545  A
C579        C586   1.403       .  A
C582        C583   1.397       .  A
C582        F587   1.358       .  S
C583        C584   1.407   1_565  A
C583        F589   1.358       .  S
C584        C585   1.409       .  A
C585        C586   1.400       .  A
C585        F588   1.358       .  S
C586        F590   1.358       .  S
C593        C594   1.404       .  A
C593        C598   1.397       .  A
C593        F611   1.358       .  S
C594        C599   1.479       .  S
C594        C595   1.405   1_545  A
C595        C596   1.399       .  A
C595        F600   1.358       .  S
C596        C597   1.408   1_565  A
C596        F612   1.358       .  S
C597        C598   1.408       .  A
C598        F601   1.358       .  S
C599        C602   1.404   1_545  A
C599        C606   1.405       .  A
C602        C603   1.398       .  A
C602        F607   1.358       .  S
C603        C604   1.408   1_565  A
C603        F609   1.358       .  S
C604        C605   1.407       .  A
C605        C606   1.398       .  A
C605        F608   1.358       .  S
C606        F610   1.358       .  S
C613        C614   1.401       .  A
C613        C618   1.399       .  A
C613        F631   1.358       .  S
C614        C619   1.469       .  S
C614        C615   1.399   1_545  A
C615        C616   1.394       .  A
C615        F620   1.358       .  S
C616        C617   1.411   1_565  A
C616        F632   1.358       .  S
C617        C618   1.413       .  A
C618        F621   1.358       .  S
C619        C622   1.400       .  A
C619        C626   1.400       .  A
C622        C623   1.398       .  A
C622        F627   1.358       .  S
C623        C624   1.412       .  A
C623        F629   1.358       .  S
C624        C625   1.412   1_545  A
C625        C626   1.396   1_565  A
C625        F628   1.358       .  S
C626        F630   1.358   1_545  S
C633        C634   1.402   1_565  A
C633        C638   1.397       .  A
C633        F651   1.358       .  S
C634        C639   1.477       .  S
C634        C635   1.403       .  A
C635        C636   1.402       .  A
C635        F640   1.358       .  S
C636        C637   1.411       .  A
C636        F652   1.358       .  S
C637        C638   1.410   1_545  A
C638        F641   1.358       .  S
C639        C642   1.403       .  A
C639        C646   1.400   1_545  A
C642        C643   1.401       .  A
C642        F647   1.358       .  S
C643        C644   1.412       .  A
C643        F649   1.358       .  S
C644        C645   1.413   1_545  A
C645        C646   1.398       .  A
C645        F648   1.358       .  S
C646        F650   1.358       .  S
C653        C654   1.405   1_545  A
C653        C658   1.399       .  A
C653        F671   1.358       .  S
C654        C659   1.480       .  S
C654        C655   1.403       .  A
C655        C656   1.397       .  A
C655        F660   1.358       .  S
C656        C657   1.411       .  A
C656        F672   1.358       .  S
C657        C658   1.410   1_565  A
C658        F661   1.358       .  S
C659        C662   1.405   1_565  A
C659        C666   1.407       .  A
C662        C663   1.397       .  A
C662        F667   1.358       .  S
C663        C664   1.406   1_545  A
C663        F669   1.358       .  S
C664        C665   1.405       .  A
C665        C666   1.398       .  A
C665        F668   1.358       .  S
C666        F670   1.358       .  S
C673        C674   1.405       .  A
C673        C678   1.399       .  A
C673        F691   1.358       .  S
C674        C679   1.484       .  S
C674        C675   1.405   1_545  A
C675        C676   1.399       .  A
C675        F680   1.358       .  S
C676        C677   1.411   1_565  A
C676        F692   1.358       .  S
C677        C678   1.411       .  A
C678        F681   1.358       .  S
C679        C682   1.407       .  A
C679        C686   1.406   1_545  A
C682        C683   1.400       .  A
C682        F687   1.358       .  S
C683        C684   1.405       .  A
C683        F689   1.358       .  S
C684        C685   1.406   1_545  A
C685        C686   1.399       .  A
C685        F688   1.358       .  S
C686        F690   1.358       .  S
C693        C694   1.403   1_545  A
C693        C698   1.397       .  A
C693        F711   1.358       .  S
C694        C699   1.474       .  S
C694        C695   1.403       .  A
C695        C696   1.398       .  A
C695        F700   1.358       .  S
C696        C697   1.408       .  A
C696        F712   1.358       .  S
C697        C698   1.406   1_565  A
C698        F701   1.358       .  S
C699        C702   1.403   1_565  A
C699        C706   1.401       .  A
C702        C703   1.399       .  A
C702        F707   1.358       .  S
C703        C704   1.409       .  A
C703        F709   1.358       .  S
C704        C705   1.411   1_545  A
C705        C706   1.396       .  A
C705        F708   1.358       .  S
C706        F710   1.358       .  S
C713        C714   1.401       .  A
C713        C718   1.396       .  A
C713        F731   1.358       .  S
C714        C719   1.470       .  S
C714        C715   1.402   1_545  A
C715        C716   1.397       .  A
C715        F720   1.358       .  S
C716        C717   1.409   1_565  A
C716        F732   1.358       .  S
C717        C718   1.410       .  A
C718        F721   1.358       .  S
C719        C722   1.401       .  A
C719        C726   1.401   1_545  A
C722        C723   1.395       .  A
C722        F727   1.358       .  S
C723        C724   1.411       .  A
C723        F729   1.358       .  S
C724        C725   1.412   1_545  A
C725        C726   1.396       .  A
C725        F728   1.358       .  S
C726        F730   1.358       .  S
C733        C734   1.403   1_556  A
C733        C738   1.399       .  A
C733        F751   1.358       .  S
C734        C739   1.475       .  S
C734        C735   1.401       .  A
C735        C736   1.396       .  A
C735        F740   1.358       .  S
C736        C737   1.412       .  A
C736        F752   1.357       .  S
C737        C738   1.411   1_554  A
C738        F741   1.358       .  S
C739        C742   1.403   1_554  A
C739        C746   1.402       .  A
C742        C743   1.399       .  A
C742        F747   1.358       .  S
C743        C744   1.410   1_556  A
C743        F749   1.358       .  S
C744        C745   1.410       .  A
C745        C746   1.396       .  A
C745        F748   1.358       .  S
C746        F750   1.358       .  S
C753        C754   1.403   1_554  A
C753        C758   1.397       .  A
C753        F771   1.358       .  S
C754        C759   1.480       .  S
C754        C755   1.405       .  A
C755        C756   1.399       .  A
C755        F760   1.358       .  S
C756        C757   1.410   1_556  A
C756        F772   1.358       .  S
C757        C758   1.412       .  A
C758        F761   1.358       .  S
C759        C762   1.404   1_556  A
C759        C766   1.406       .  A
C762        C763   1.396       .  A
C762        F767   1.358       .  S
C763        C764   1.409   1_554  A
C763        F769   1.358       .  S
C764        C765   1.409       .  A
C765        C766   1.399       .  A
C765        F768   1.358       .  S
C766        F770   1.358       .  S
C773        C774   1.403       .  A
C773        C778   1.398       .  A
C773        F791   1.358       .  S
C774        C779   1.477       .  S
C774        C775   1.404   1_554  A
C775        C776   1.398       .  A
C775        F780   1.358       .  S
C776        C777   1.407   1_556  A
C776        F792   1.358       .  S
C777        C778   1.410       .  A
C778        F781   1.358       .  S
C779        C782   1.403   1_554  A
C779        C786   1.405       .  A
C782        C783   1.396       .  A
C782        F787   1.358       .  S
C783        C784   1.407   1_556  A
C783        F789   1.358       .  S
C784        C785   1.408       .  A
C785        C786   1.400       .  A
C785        F788   1.358       .  S
C786        F790   1.358       .  S
C793        C794   1.403       .  A
C793        C798   1.398       .  A
C793        F811   1.358       .  S
C794        C799   1.478       .  S
C794        C795   1.405   1_556  A
C795        C796   1.399       .  A
C795        F800   1.358       .  S
C796        C797   1.407       .  A
C796        F812   1.358       .  S
C797        C798   1.410   1_554  A
C798        F801   1.358       .  S
C799        C802   1.406       .  A
C799        C806   1.404   1_556  A
C802        C803   1.400       .  A
C802        F807   1.358       .  S
C803        C804   1.406       .  A
C803        F809   1.358       .  S
C804        C805   1.405   1_556  A
C805        C806   1.397       .  A
C805        F808   1.358       .  S
C806        F810   1.358       .  S
C813        C814   1.400   1_556  A
C813        C818   1.395       .  A
C813        F831   1.358       .  S
C814        C819   1.474       .  S
C814        C815   1.402       .  A
C815        C816   1.400       .  A
C815        F820   1.358       .  S
C816        C817   1.412       .  A
C816        F832   1.358       .  S
C817        C818   1.412   1_554  A
C818        F821   1.358       .  S
C819        C822   1.402   1_554  A
C819        C826   1.402       .  A
C822        C823   1.396       .  A
C822        F827   1.358       .  S
C823        C824   1.409       .  A
C823        F829   1.358       .  S
C824        C825   1.411   1_556  A
C825        C826   1.399       .  A
C825        F828   1.358       .  S
C826        F830   1.358       .  S
C833        C834   1.407   1_556  A
C833        C838   1.397       .  A
C833        F851   1.358       .  S
C834        C839   1.482       .  S
C834        C835   1.405       .  A
C835        C836   1.397       .  A
C835        F840   1.358       .  S
C836        C837   1.409       .  A
C836        F852   1.358       .  S
C837        C838   1.407   1_554  A
C838        F841   1.358       .  S
C839        C842   1.407       .  A
C839        C846   1.406   1_554  A
C842        C843   1.398       .  A
C842        F847   1.358       .  S
C843        C844   1.407       .  A
C843        F849   1.358       .  S
C844        C845   1.407   1_554  A
C845        C846   1.396       .  A
C845        F848   1.358       .  S
C846        F850   1.358       .  S
C853        C854   1.400   1_554  A
C853        C858   1.396       .  A
C853        F871   1.358       .  S
C854        C859   1.470       .  S
C854        C855   1.402       .  A
C855        C856   1.398       .  A
C855        F860   1.358       .  S
C856        C857   1.410       .  A
C856        F872   1.358       .  S
C857        C858   1.411   1_556  A
C858        F861   1.358       .  S
C859        C862   1.400   1_556  A
C859        C866   1.401       .  A
C862        C863   1.396       .  A
C862        F867   1.358       .  S
C863        C864   1.412   1_554  A
C863        F869   1.358       .  S
C864        C865   1.411       .  A
C865        C866   1.397       .  A
C865        F868   1.358       .  S
C866        F870   1.358       .  S
C873        C874   1.403   1_554  A
C873        C878   1.397       .  A
C873        F891   1.358       .  S
C874        C879   1.474       .  S
C874        C875   1.403       .  A
C875        C876   1.396       .  A
C875        F880   1.358       .  S
C876        C877   1.409       .  A
C876        F892   1.358       .  S
C877        C878   1.408   1_556  A
C878        F881   1.358       .  S
C879        C882   1.402   1_556  A
C879        C886   1.403       .  A
C882        C883   1.396       .  A
C882        F887   1.358       .  S
C883        C884   1.411   1_554  A
C883        F889   1.358       .  S
C884        C885   1.411       .  A
C885        C886   1.398       .  A
C885        F888   1.358       .  S
C886        F890   1.358       .  S
C893        C894   1.408   1_556  A
C893        C898   1.398       .  A
C893        F911   1.358       .  S
C894        C899   1.484       .  S
C894        C895   1.405       .  A
C895        C896   1.399       .  A
C895        F900   1.358       .  S
C896        C897   1.410       .  A
C896        F912   1.358       .  S
C897        C898   1.406   1_554  A
C898        F901   1.358       .  S
C899        C902   1.408       .  A
C899        C906   1.404   1_554  A
C902        C903   1.402       .  A
C902        F907   1.358       .  S
C903        C904   1.407       .  A
C903        F909   1.358       .  S
C904        C905   1.409   1_554  A
C905        C906   1.394       .  A
C905        F908   1.358       .  S
C906        F910   1.358       .  S
C913        C914   1.405   1_556  A
C913        C918   1.399       .  A
C913        F931   1.358       .  S
C914        C919   1.480       .  S
C914        C915   1.403       .  A
C915        C916   1.399       .  A
C915        F920   1.358       .  S
C916        C917   1.411       .  A
C916        F932   1.358       .  S
C917        C918   1.409   1_554  A
C918        F921   1.358       .  S
C919        C922   1.404   1_554  A
C919        C926   1.406       .  A
C922        C923   1.397       .  A
C922        F927   1.358       .  S
C923        C924   1.406   1_556  A
C923        F929   1.358       .  S
C924        C925   1.406       .  A
C925        C926   1.401       .  A
C925        F928   1.358       .  S
C926        F930   1.358       .  S
C933        C934   1.403       .  A
C933        C938   1.397       .  A
C933        F951   1.358   1_556  S
C934        C939   1.477       .  S
C934        C935   1.403       .  A
C935        C936   1.400       .  A
C935        F940   1.358       .  S
C936        C937   1.412       .  A
C936        F952   1.358       .  S
C937        C938   1.408       .  A
C938        F941   1.358   1_556  S
C939        C942   1.402   1_556  A
C939        C946   1.403       .  A
C942        C943   1.395       .  A
C942        F947   1.358       .  S
C943        C944   1.410   1_554  A
C943        F949   1.357       .  S
C944        C945   1.414       .  A
C945        C946   1.402       .  A
C945        F948   1.358       .  S
C946        F950   1.358       .  S
C953        C954   1.404       .  A
C953        C958   1.403       .  A
C953        F971   1.358       .  S
C954        C959   1.477       .  S
C954        C955   1.400   1_556  A
C955        C956   1.397       .  A
C955        F960   1.358       .  S
C956        C957   1.412   1_554  A
C956        F972   1.358       .  S
C957        C958   1.411       .  A
C958        F961   1.358       .  S
C959        C962   1.401       .  A
C959        C966   1.403   1_556  A
C962        C963   1.399       .  A
C962        F967   1.358       .  S
C963        C964   1.411       .  A
C963        F969   1.358       .  S
C964        C965   1.411   1_556  A
C965        C966   1.401       .  A
C965        F968   1.358       .  S
C966        F970   1.358       .  S
