geometry optimzed in LAMMPS
_audit_creation_date              2020-11-30 
_audit_creation_method            'lammps2cif' 
_symmetry_space_group_name_H-M    'P1' 
_symmetry_Int_Tables_number       1 
_symmetry_cell_setting            triclinic 
loop_ 
_symmetry_equiv_pos_as_xyz 
  x,y,z 
_cell_length_a                    59.29954101 
_cell_length_b                    59.30618681464981 
_cell_length_c                    59.298428049064164 
_cell_angle_alpha                 90.00067200220472 
_cell_angle_beta                  90.01090991777728 
_cell_angle_gamma                 89.99116769005751 
loop_ 
_atom_site_label 
_atom_site_type_symbol 
_atom_site_fract_x 
_atom_site_fract_y 
_atom_site_fract_z 
_atom_site_charge 
O1          O  0.09489055  0.12402575  0.34832982    -0.73800
O2          O  0.15917518  0.12013890  0.35357687    -0.73800
O3          O  0.12537039  0.09001591  0.35093603    -0.73900
O4          O  0.12913912  0.15446003  0.35098821    -0.73900
O5          O  0.12469965  0.15466902  0.38836049    -0.73800
O6          O  0.12318731  0.09002354  0.38849684    -0.73800
O7          O  0.15619028  0.12177464  0.39108121    -0.73800
O8          O  0.09197112  0.12324504  0.38582990    -0.73900
Ni9        Ni  0.12721125  0.12217816  0.34960787     1.25400
Ni10       Ni  0.12390707  0.12240561  0.38978603     1.25400
C11         C  0.08285819  0.12411933  0.36627532     0.88400
C12         C  0.16818798  0.12052109  0.37318515     0.88300
C13         C  0.12403884  0.07939974  0.36968560     0.88400
C14         C  0.12742153  0.16515493  0.36967741     0.88500
O15         O  0.12401422  0.83931573  0.39520487    -0.73800
O16         O  0.12580265  0.90383821  0.39767470    -0.73800
O17         O  0.09308558  0.87269717  0.39219294    -0.73900
O18         O  0.15726772  0.87057981  0.40060582    -0.73900
O19         O  0.16210407  0.87128501  0.36330604    -0.73800
O20         O  0.09791342  0.87411467  0.35492635    -0.73800
O21         O  0.13101844  0.90506050  0.36044421    -0.73800
O22         O  0.12920477  0.84048388  0.35793551    -0.73900
Ni23       Ni  0.12492360  0.87154816  0.39774830     1.25400
Ni24       Ni  0.13024039  0.87280140  0.35782357     1.25400
C25         C  0.12632877  0.82933401  0.37619627     0.88400
C26         C  0.12827617  0.91507455  0.37941144     0.88300
C27         C  0.08492632  0.87394409  0.37221062     0.88400
C28         C  0.17023332  0.87033109  0.38330365     0.88500
O29         O  0.87570101  0.15985159  0.35335007    -0.73800
O30         O  0.87564981  0.09505916  0.35500897    -0.73800
O31         O  0.84312841  0.12719796  0.35435647    -0.73900
O32         O  0.90797070  0.12748522  0.35403805    -0.73900
O33         O  0.90790268  0.12849337  0.39164263    -0.73800
O34         O  0.84350912  0.12840955  0.39195936    -0.73800
O35         O  0.87576228  0.09608980  0.39260764    -0.73800
O36         O  0.87551586  0.16057851  0.39096632    -0.73900
Ni37       Ni  0.87559344  0.12737447  0.35281069     1.25400
Ni38       Ni  0.87569942  0.12840709  0.39309542     1.25400
C39         C  0.87558698  0.17083969  0.37197704     0.88400
C40         C  0.87566459  0.08493761  0.37411362     0.88300
C41         C  0.83269533  0.12776900  0.37329978     0.88400
C42         C  0.91855698  0.12808808  0.37287557     0.88500
O43         O  0.87688986  0.90921136  0.34821912    -0.73800
O44         O  0.87826852  0.84476749  0.34969081    -0.73800
O45         O  0.84512116  0.87626717  0.34783756    -0.73900
O46         O  0.90997427  0.87754145  0.35024810    -0.73900
O47         O  0.90811236  0.87678114  0.38779680    -0.73800
O48         O  0.84359752  0.87903476  0.38533360    -0.73800
O49         O  0.87465973  0.84545318  0.38714605    -0.73800
O50         O  0.87672671  0.91014918  0.38582131    -0.73900
Ni51       Ni  0.87760087  0.87692748  0.34765014     1.25400
Ni52       Ni  0.87576493  0.87786310  0.38787412     1.25400
C53         C  0.87664999  0.92030896  0.36674107     0.88400
C54         C  0.87643033  0.83451898  0.36858309     0.88300
C55         C  0.83374800  0.87787973  0.36616446     0.88400
C56         C  0.91970569  0.87700104  0.36955285     0.88500
O57         O  0.14325895  0.37334912  0.34735761    -0.73800
O58         O  0.14734347  0.37110195  0.41185655    -0.73800
O59         O  0.14528907  0.33976352  0.37846115    -0.73900
O60         O  0.14525711  0.40438165  0.38059860    -0.73900
O61         O  0.10765672  0.40433920  0.38161333    -0.73800
O62         O  0.10789543  0.33973637  0.38276151    -0.73800
O63         O  0.10982369  0.37238437  0.41423270    -0.73800
O64         O  0.10575176  0.37135679  0.34975314    -0.73900
Ni65       Ni  0.14663630  0.37213102  0.37948985     1.25400
Ni66       Ni  0.10643255  0.37197396  0.38213693     1.25400
C67         C  0.12382810  0.37251469  0.33797739     0.88400
C68         C  0.12924713  0.37156163  0.42365415     0.88300
C69         C  0.12659491  0.32916212  0.38070647     0.88400
C70         C  0.12646003  0.41499922  0.38120917     0.88500
O71         O  0.10632422  0.37801829  0.66355208    -0.73800
O72         O  0.10506425  0.37472925  0.59918380    -0.73800
O73         O  0.10372030  0.34407624  0.63308091    -0.73900
O74         O  0.10763638  0.40854735  0.62989862    -0.73900
O75         O  0.14517798  0.40629265  0.63036668    -0.73800
O76         O  0.14121644  0.34172790  0.63060342    -0.73800
O77         O  0.14266018  0.37369041  0.59831660    -0.73800
O78         O  0.14374252  0.37391635  0.66300369    -0.73900
Ni79       Ni  0.10435299  0.37642618  0.63143574     1.25400
Ni80       Ni  0.14456507  0.37386647  0.63059010     1.25400
C81         C  0.12518586  0.37616335  0.67384937     0.88400
C82         C  0.12360204  0.37371688  0.58814208     0.88300
C83         C  0.12181872  0.33234820  0.63193469     0.88400
C84         C  0.12703686  0.41805095  0.62987945     0.88500
O85         O  0.13066895  0.62248068  0.34700565    -0.73800
O86         O  0.13548881  0.62328084  0.41136095    -0.73800
O87         O  0.13354650  0.59035256  0.37955787    -0.73900
O88         O  0.13253808  0.65504051  0.37863195    -0.73900
O89         O  0.09505919  0.65454867  0.38189868    -0.73800
O90         O  0.09604119  0.58994561  0.38232141    -0.73800
O91         O  0.09800222  0.62258392  0.41433926    -0.88200
O92         O  0.09315200  0.62178375  0.34974815    -0.73900
Ni93       Ni  0.13439264  0.62277194  0.37905964     1.25400
Ni94       Ni  0.09422328  0.62219041  0.38216831     1.25400
C95         C  0.11114654  0.62213503  0.33777972     0.88400
C96         C  0.11759131  0.62322702  0.42345416     0.88300
C97         C  0.11489719  0.57950317  0.38098632     0.88400
C98         C  0.11364514  0.66541326  0.38014410     0.88500
O99         O  0.10993512  0.65942610  0.63323181    -0.73800
O100        O  0.10528744  0.59483745  0.63302213    -0.73800
O101        O  0.11130849  0.62701540  0.66506213    -0.73900
O102        O  0.10373156  0.62737337  0.60093291    -0.73900
O103        O  0.14101465  0.62496529  0.59654375    -0.73800
O104        O  0.14855413  0.62361649  0.66073731    -0.73800
O105        O  0.14251576  0.59224720  0.62832200    -0.73800
O106        O  0.14720683  0.65665624  0.62867916    -0.73900
Ni107      Ni  0.10622748  0.62726213  0.63320281     1.25400
Ni108      Ni  0.14615219  0.62431293  0.62843447     1.25400
C109        C  0.12936401  0.66859070  0.63098232     0.88400
C110        C  0.12317619  0.58292372  0.63062678     0.88300
C111        C  0.13111665  0.62504222  0.67340422     0.88400
C112        C  0.12112586  0.62620049  0.58818071     0.88500
O113        O  0.65711598  0.13581456  0.37464592    -0.73800
O114        O  0.59236284  0.13307245  0.37622728    -0.73800
O115        O  0.62570331  0.13216772  0.40752749    -0.73900
O116        O  0.62375876  0.13702165  0.34328472    -0.73900
O117        O  0.62519918  0.09950538  0.34036702    -0.73800
O118        O  0.62764600  0.09469904  0.40498057    -0.73800
O119        O  0.59408245  0.09557698  0.37389904    -0.73800
O120        O  0.65856026  0.09836860  0.37107222    -0.73900
Ni121      Ni  0.62467535  0.13584750  0.37553537     1.25400
Ni122      Ni  0.62639932  0.09568880  0.37251501     1.25400
C123        C  0.66839769  0.11753296  0.37221445     0.88400
C124        C  0.58258402  0.11380297  0.37538464     0.88300
C125        C  0.62702190  0.11275288  0.41687504     0.88400
C126        C  0.62435044  0.11909697  0.33130748     0.88500
O127        O  0.66044972  0.13990250  0.62507096    -0.73800
O128        O  0.59618396  0.14392656  0.62351681    -0.73800
O129        O  0.62797435  0.14249220  0.65635424    -0.73900
O130        O  0.62899246  0.14127574  0.59188631    -0.73900
O131        O  0.62681961  0.10372824  0.59228015    -0.73800
O132        O  0.62514941  0.10496740  0.65705784    -0.73800
O133        O  0.59388473  0.10637557  0.62376427    -0.73800
O134        O  0.65834346  0.10230427  0.62533660    -0.73900
Ni135      Ni  0.62845371  0.14321568  0.62414310     1.25400
Ni136      Ni  0.62596405  0.10297448  0.62464931     1.25400
C137        C  0.66991424  0.12053760  0.62562887     0.88400
C138        C  0.58445831  0.12580903  0.62338278     0.88300
C139        C  0.62655715  0.12396251  0.66730118     0.88400
C140        C  0.62811030  0.12238065  0.58144636     0.88500
O141        O  0.34353461  0.09320416  0.36915355    -0.73800
O142        O  0.40811904  0.09685125  0.37148711    -0.73800
O143        O  0.37476481  0.09430946  0.40262591    -0.73900
O144        O  0.37685242  0.09563100  0.33802015    -0.73900
O145        O  0.37271004  0.13302162  0.33876679    -0.73800
O146        O  0.37407560  0.13190258  0.40346007    -0.73800
O147        O  0.40586581  0.13437969  0.37071431    -0.73800
O148        O  0.34145029  0.13068507  0.37180593    -0.73900
Ni149      Ni  0.37591227  0.09364894  0.37028990     1.25400
Ni150      Ni  0.37350616  0.13384440  0.37117060     1.25400
C151        C  0.33191789  0.11137460  0.37046920     0.88400
C152        C  0.41762227  0.11626448  0.37144632     0.88300
C153        C  0.37422095  0.11286259  0.41368268     0.88400
C154        C  0.37447610  0.11448818  0.32778316     0.88500
O155        O  0.34450942  0.10501830  0.62263246    -0.73800
O156        O  0.40889464  0.10261320  0.62063528    -0.73800
O157        O  0.37757784  0.10435058  0.65384944    -0.73900
O158        O  0.37571380  0.10347691  0.58908523    -0.73900
O159        O  0.37733185  0.14105164  0.58872943    -0.73800
O160        O  0.37930985  0.14195315  0.65317507    -0.73800
O161        O  0.41039853  0.14020431  0.62024758    -0.73800
O162        O  0.34579416  0.14262743  0.62152947    -0.73900
Ni163      Ni  0.37662839  0.10251139  0.62153395     1.25400
Ni164      Ni  0.37821840  0.14279520  0.62089894     1.25400
C165        C  0.33458939  0.12417077  0.62238661     0.88400
C166        C  0.42023912  0.12097781  0.62040512     0.88300
C167        C  0.37899491  0.12333217  0.66407195     0.88400
C168        C  0.37619862  0.12220917  0.57827335     0.88500
O169        O  0.88659339  0.62753031  0.40350855    -0.73800
O170        O  0.88446128  0.62860354  0.33884248    -0.73800
O171        O  0.88487184  0.66040943  0.37153610    -0.73900
O172        O  0.88623779  0.59600508  0.37060979    -0.73900
O173        O  0.84863211  0.59513350  0.37035991    -0.73800
O174        O  0.84737701  0.65971703  0.37477475    -0.73800
O175        O  0.84686923  0.62984061  0.34021154    -0.73800
O176        O  0.84906484  0.62534179  0.40470155    -0.73900
Ni177      Ni  0.88687696  0.62818661  0.37110041     1.25400
Ni178      Ni  0.84662086  0.62745085  0.37253348     1.25400
C179        C  0.86818416  0.62590797  0.41473753     0.88400
C180        C  0.86530291  0.62979608  0.32894449     0.88300
C181        C  0.86595735  0.67063862  0.37350582     0.88400
C182        C  0.86771604  0.58495291  0.37012062     0.88500
O183        O  0.86841268  0.65541054  0.62336450    -0.73800
O184        O  0.86854315  0.59072195  0.62164798    -0.73800
O185        O  0.86946554  0.62221949  0.65455108    -0.73900
O186        O  0.86738030  0.62365351  0.58999578    -0.73900
O187        O  0.90495408  0.62260207  0.58875449    -0.73800
O188        O  0.90703449  0.62399636  0.65342748    -0.73800
O189        O  0.90615539  0.59092142  0.62165771    -0.73800
O190        O  0.90593273  0.65550837  0.62040815    -0.73900
Ni191      Ni  0.86710259  0.62302484  0.62238852     1.25400
Ni192      Ni  0.90736495  0.62324799  0.62101822     1.25400
C193        C  0.88718512  0.66605341  0.62217961     0.88400
C194        C  0.88741018  0.58018138  0.62166274     0.88300
C195        C  0.88855390  0.62315249  0.66459739     0.88400
C196        C  0.88581671  0.62298130  0.57872722     0.88500
O197        O  0.89021945  0.37945430  0.39325753    -0.73800
O198        O  0.88507346  0.38000398  0.32884899    -0.73800
O199        O  0.88457216  0.41166899  0.36153546    -0.73900
O200        O  0.89086611  0.34744891  0.36015568    -0.73900
O201        O  0.85370580  0.34378401  0.36492025    -0.73800
O202        O  0.84715060  0.40815556  0.36296702    -0.73800
O203        O  0.84794307  0.37456256  0.33165547    -0.73800
O204        O  0.85278997  0.37718712  0.39612166    -0.73900
Ni205      Ni  0.88901363  0.37974737  0.36086579     1.25400
Ni206      Ni  0.84904497  0.37579274  0.36401232     1.25400
C207        C  0.87229275  0.37868993  0.40531575     0.88400
C208        C  0.86573731  0.37708924  0.31968256     0.88300
C209        C  0.86488157  0.42050092  0.36231549     0.88400
C210        C  0.87332138  0.33508535  0.36240807     0.88500
O211        O  0.89422354  0.40517835  0.61523751    -0.73800
O212        O  0.89340532  0.34096161  0.60737405    -0.73800
O213        O  0.89103921  0.37688468  0.57940714    -0.73900
O214        O  0.89670948  0.36889814  0.64345962    -0.73900
O215        O  0.85930829  0.37109803  0.64692919    -0.73800
O216        O  0.85359900  0.37536135  0.58253492    -0.73800
O217        O  0.85615891  0.34088905  0.61277719    -0.73800
O218        O  0.85665248  0.40535352  0.61693037    -0.73900
Ni219      Ni  0.89519398  0.37300745  0.61127701     1.25400
Ni220      Ni  0.85508783  0.37317103  0.61489477     1.25400
C221        C  0.87550389  0.41587243  0.61697397     0.88400
C222        C  0.87467579  0.33037346  0.60915184     0.88300
C223        C  0.87140366  0.37703872  0.57037328     0.88400
C224        C  0.87892360  0.36893362  0.65573419     0.88500
O225        O  0.34671928  0.84690865  0.38363574    -0.73800
O226        O  0.41107128  0.85150048  0.38482909    -0.73800
O227        O  0.37855774  0.84797069  0.41673902    -0.73900
O228        O  0.37970915  0.85060148  0.35221379    -0.73900
O229        O  0.37539823  0.88795840  0.35368580    -0.73800
O230        O  0.37693356  0.88551405  0.41829513    -0.73800
O231        O  0.40856011  0.88902555  0.38518818    -0.73800
O232        O  0.34392550  0.88430493  0.38684440    -0.73900
Ni233      Ni  0.37905728  0.84791432  0.38436415     1.25400
Ni234      Ni  0.37610050  0.88806038  0.38607578     1.25400
C235        C  0.33475632  0.86481845  0.38512337     0.88400
C236        C  0.42042432  0.87094309  0.38457807     0.88300
C237        C  0.37779193  0.86631161  0.42814803     0.88400
C238        C  0.37789299  0.86971998  0.34236772     0.88500
O239        O  0.34737154  0.85033141  0.63560993    -0.73800
O240        O  0.41187040  0.84956994  0.63329748    -0.73800
O241        O  0.38074205  0.84819093  0.66698934    -0.73900
O242        O  0.37841813  0.85188102  0.60240601    -0.73900
O243        O  0.37750213  0.88941598  0.60457865    -0.73800
O244        O  0.38284066  0.88569939  0.66889537    -0.73800
O245        O  0.41235561  0.88716341  0.63414110    -0.73800
O246        O  0.34775260  0.88776081  0.63937128    -0.73900
Ni247      Ni  0.37958156  0.84865648  0.63455823     1.25400
Ni248      Ni  0.38011015  0.88886063  0.63685025     1.25400
C249        C  0.33694237  0.86910432  0.63775329     0.88400
C250        C  0.42272774  0.86822719  0.63288607     0.88300
C251        C  0.38254840  0.86637735  0.67853456     0.88400
C252        C  0.37739401  0.87125429  0.59288262     0.88500
O253        O  0.59715898  0.89848215  0.62332632    -0.73800
O254        O  0.66162686  0.89952596  0.62644552    -0.73800
O255        O  0.63077204  0.90214120  0.59262265    -0.73900
O256        O  0.62783876  0.89593648  0.65689713    -0.73900
O257        O  0.63016866  0.85856380  0.65331838    -0.73800
O258        O  0.63049861  0.86472158  0.58887011    -0.73800
O259        O  0.66255517  0.86227729  0.62114354    -0.73800
O260        O  0.59779163  0.86096680  0.62080209    -0.73900
Ni261      Ni  0.62933063  0.90034488  0.62491175     1.25400
Ni262      Ni  0.63024989  0.86027338  0.62091268     1.25400
C263        C  0.58682960  0.87957919  0.62191147     0.88400
C264        C  0.67267551  0.88111603  0.62415004     0.88300
C265        C  0.63097730  0.88449266  0.58016055     0.88400
C266        C  0.62882053  0.87624208  0.66569654     0.88500
O267        O  0.62986695  0.86912503  0.40347667    -0.73800
O268        O  0.62421275  0.87281619  0.33936518    -0.73800
O269        O  0.65935424  0.87182476  0.36868173    -0.73900
O270        O  0.59493583  0.87035998  0.37401226    -0.73900
O271        O  0.59425031  0.90794959  0.37500254    -0.73800
O272        O  0.65884809  0.90922407  0.37281991    -0.73800
O273        O  0.62532598  0.91036586  0.34135585    -0.73800
O274        O  0.62789864  0.90659066  0.40608813    -0.73900
Ni275      Ni  0.62713839  0.86970996  0.37130739     1.25400
Ni276      Ni  0.62654138  0.90990304  0.37385341     1.25400
C277        C  0.62964014  0.88713993  0.41537624     0.88400
C278        C  0.62393916  0.89213986  0.32977951     0.88300
C279        C  0.66969792  0.89071639  0.37044455     0.88400
C280        C  0.58397139  0.88895100  0.37507507     0.88500
O281        O  0.13190131  0.84276856  0.62201125    -0.73800
O282        O  0.12956546  0.90731265  0.61963649    -0.73800
O283        O  0.16293481  0.87595637  0.62234292    -0.73900
O284        O  0.09848147  0.87382894  0.61940442    -0.73900
O285        O  0.09654666  0.87500375  0.65695144    -0.73800
O286        O  0.16112968  0.87814395  0.65987908    -0.73800
O287        O  0.12735562  0.90875906  0.65715420    -0.73800
O288        O  0.13013249  0.84412816  0.65956423    -0.73900
Ni289      Ni  0.13077726  0.87495100  0.61952323     1.25400
Ni290      Ni  0.12875354  0.87653689  0.65974076     1.25400
C291        C  0.13133745  0.83282249  0.64116936     0.88400
C292        C  0.12801343  0.91866794  0.63796518     0.88300
C293        C  0.17260506  0.87739425  0.64159264     0.88400
C294        C  0.08690340  0.87399069  0.63764328     0.88500
O295        O  0.09427753  0.12345921  0.60188983    -0.73800
O296        O  0.15888875  0.12752256  0.59890580    -0.73800
O297        O  0.12847522  0.09300557  0.60059224    -0.73900
O298        O  0.12486573  0.15768950  0.60025269    -0.73900
O299        O  0.12633271  0.15792097  0.63784760    -0.73800
O300        O  0.12974620  0.09342117  0.63817567    -0.73800
O301        O  0.16042373  0.12721175  0.63650093    -0.73800
O302        O  0.09593477  0.12392129  0.63945748    -0.73900
Ni303      Ni  0.12655864  0.12538583  0.59905351     1.25400
Ni304      Ni  0.12820529  0.12564486  0.63930832     1.25400
C305        C  0.08447513  0.12306246  0.62117483     0.88400
C306        C  0.17025068  0.12803444  0.61726884     0.88300
C307        C  0.12942026  0.08256362  0.61950836     0.88400
C308        C  0.12508679  0.16841960  0.61900617     0.88500
O309        O  0.84398249  0.12286541  0.63396729    -0.73800
O310        O  0.90881068  0.12347285  0.63445693    -0.73800
O311        O  0.87558986  0.15546296  0.63422318    -0.73900
O312        O  0.87664171  0.09085789  0.63435757    -0.73900
O313        O  0.87703564  0.09065280  0.59674782    -0.73800
O314        O  0.87609004  0.15539731  0.59659755    -0.73800
O315        O  0.90878188  0.12336908  0.59685210    -0.73800
O316        O  0.84428466  0.12225851  0.59633600    -0.73900
Ni317      Ni  0.87629767  0.12318908  0.63560261     1.25400
Ni318      Ni  0.87657245  0.12297703  0.59530671     1.25400
C319        C  0.83354328  0.12219800  0.61505454     0.88400
C320        C  0.91945763  0.12325105  0.61561787     0.88300
C321        C  0.87533742  0.16603888  0.61540537     0.88400
C322        C  0.87689423  0.08011041  0.61560439     0.88500
O323        O  0.90950057  0.87302402  0.65510715    -0.73800
O324        O  0.84528603  0.87442896  0.64739228    -0.73800
O325        O  0.87648952  0.84125578  0.65238061    -0.73900
O326        O  0.87807464  0.90589818  0.65013866    -0.73900
O327        O  0.88129317  0.90461610  0.61268911    -0.73800
O328        O  0.88235334  0.83999569  0.61523810    -0.73800
O329        O  0.84962648  0.87155616  0.61012538    -0.73800
O330        O  0.91373880  0.87278031  0.61773509    -0.73900
Ni331      Ni  0.87718638  0.87367903  0.65259704     1.25400
Ni332      Ni  0.88189252  0.87219881  0.61261633     1.25400
C333        C  0.92218929  0.87285315  0.63761709     0.88400
C334        C  0.83691872  0.87311869  0.62751319     0.88300
C335        C  0.87951122  0.83000691  0.63418090     0.88400
C336        C  0.87966747  0.91590350  0.63105839     0.88500
O337        O  0.35210523  0.13082553  0.08800730    -0.73800
O338        O  0.34723330  0.13258594  0.15255235    -0.73800
O339        O  0.34955351  0.16406650  0.11910349    -0.73900
O340        O  0.34970330  0.09946283  0.12123011    -0.73900
O341        O  0.38729169  0.09949391  0.12264893    -0.73800
O342        O  0.38691134  0.16426075  0.12349398    -0.73800
O343        O  0.38474085  0.13096540  0.15515888    -0.73800
O344        O  0.38959094  0.13215762  0.09076210    -0.73900
Ni345      Ni  0.34830564  0.13176651  0.12012832     1.25400
Ni346      Ni  0.38847475  0.13180915  0.12310313     1.25400
C347        C  0.37164589  0.13124148  0.07877159     0.88400
C348        C  0.36524043  0.13120511  0.16442407     0.88300
C349        C  0.36818585  0.17480978  0.12100612     0.88400
C350        C  0.36849330  0.08884740  0.12229355     0.88500
O351        O  0.35039609  0.12684253  0.90266228    -0.73800
O352        O  0.35251935  0.12265120  0.83836485    -0.73800
O353        O  0.35254578  0.09257891  0.87264788    -0.73900
O354        O  0.35045028  0.15717445  0.86819213    -0.73900
O355        O  0.38793834  0.15855827  0.87100128    -0.73800
O356        O  0.39012666  0.09391381  0.87260253    -0.73800
O357        O  0.39001794  0.12562029  0.83932203    -0.73800
O358        O  0.38798158  0.12698195  0.90406918    -0.73900
Ni359      Ni  0.35014443  0.12480351  0.87043279     1.25400
Ni360      Ni  0.39037097  0.12631441  0.87176738     1.25400
C361        C  0.36878168  0.12717811  0.91399352     0.88400
C362        C  0.37155198  0.12361433  0.82825352     0.88300
C363        C  0.37170686  0.08260608  0.87329188     0.88400
C364        C  0.36885124  0.16848628  0.86903562     0.88500
O365        O  0.37630372  0.84292042  0.88509597    -0.73800
O366        O  0.37313428  0.90747612  0.88508631    -0.73800
O367        O  0.37511284  0.87479845  0.85287818    -0.73900
O368        O  0.37444146  0.87524449  0.91760453    -0.73900
O369        O  0.41199597  0.87722586  0.91797374    -0.73800
O370        O  0.41269078  0.87695585  0.85330653    -0.73800
O371        O  0.41069228  0.90931937  0.88543454    -0.73800
O372        O  0.41388816  0.84454586  0.88601859    -0.73900
Ni373      Ni  0.37341943  0.87506715  0.88519158     1.25400
Ni374      Ni  0.41366333  0.87705588  0.88569876     1.25400
C375        C  0.39554119  0.83312165  0.88541335     0.88400
C376        C  0.39138918  0.91905118  0.88511071     0.88300
C377        C  0.39402635  0.87573989  0.84249688     0.88400
C378        C  0.39312608  0.87636642  0.92843779     0.88500
O379        O  0.39861754  0.84966027  0.13716153    -0.73800
O380        O  0.39918691  0.91418560  0.13484991    -0.73800
O381        O  0.39858608  0.88273947  0.16830472    -0.73900
O382        O  0.39905063  0.88084733  0.10358556    -0.73900
O383        O  0.36143620  0.88097082  0.10330777    -0.73800
O384        O  0.36096062  0.88386445  0.16779223    -0.73800
O385        O  0.36157621  0.91458818  0.13418705    -0.73800
O386        O  0.36098457  0.85006364  0.13673311    -0.73900
Ni387      Ni  0.40021357  0.88187194  0.13597897     1.25400
Ni388      Ni  0.35990639  0.88236990  0.13552268     1.25400
C389        C  0.37970488  0.83927564  0.13729669     0.88400
C390        C  0.38050112  0.92499934  0.13401646     0.88300
C391        C  0.37963048  0.88362274  0.17862790     0.88400
C392        C  0.38029152  0.88051448  0.09281377     0.88500
O393        O  0.90710711  0.39181312  0.11158294    -0.73800
O394        O  0.84270352  0.39524508  0.11273996    -0.73800
O395        O  0.87573120  0.39501093  0.14430190    -0.73900
O396        O  0.87399096  0.39186457  0.07986819    -0.73900
O397        O  0.87252423  0.35432323  0.08171929    -0.73800
O398        O  0.87276924  0.35752599  0.14624012    -0.73800
O399        O  0.84046234  0.35772362  0.11449412    -0.73800
O400        O  0.90517161  0.35433373  0.11399009    -0.73900
Ni401      Ni  0.87496400  0.39480376  0.11201275     1.25400
Ni402      Ni  0.87270470  0.35461317  0.11410226     1.25400
C403        C  0.91677625  0.37256594  0.11310250     0.88400
C404        C  0.83100839  0.37715528  0.11410956     0.88300
C405        C  0.87421467  0.37681001  0.15580989     0.88400
C406        C  0.87290739  0.37259100  0.07018674     0.88500
O407        O  0.90848388  0.34131854  0.86387908    -0.73800
O408        O  0.84395876  0.34108290  0.86055698    -0.73800
O409        O  0.87799526  0.34331355  0.82984375    -0.73900
O410        O  0.87474209  0.33936296  0.89465165    -0.73900
O411        O  0.87498662  0.37691796  0.89663282    -0.73800
O412        O  0.87662010  0.38082225  0.83238686    -0.73800
O413        O  0.84365548  0.37855231  0.86385219    -0.73800
O414        O  0.90839155  0.37888459  0.86559459    -0.73900
Ni415      Ni  0.87629976  0.33991320  0.86213946     1.25400
Ni416      Ni  0.87595407  0.38011514  0.86465116     1.25400
C417        C  0.91906788  0.36006789  0.86535570     0.88400
C418        C  0.83317497  0.35974695  0.86198041     0.88300
C419        C  0.87747893  0.36281963  0.82051293     0.88400
C420        C  0.87437359  0.35762134  0.90625883     0.88500
O421        O  0.12338622  0.39424849  0.09710204    -0.73800
O422        O  0.12563670  0.39896015  0.16172520    -0.73800
O423        O  0.15666406  0.39544907  0.12826617    -0.73900
O424        O  0.09205461  0.39792974  0.13014400    -0.73900
O425        O  0.09054526  0.36039191  0.13178422    -0.73800
O426        O  0.15525085  0.35811644  0.13277178    -0.73800
O427        O  0.12248510  0.36156282  0.16438135    -0.73800
O428        O  0.12292341  0.35675421  0.10005839    -0.73900
Ni429      Ni  0.12446109  0.39800511  0.12925653     1.25400
Ni430      Ni  0.12279168  0.35787741  0.13235089     1.25400
C431        C  0.12282381  0.37465571  0.08798410     0.88400
C432        C  0.12427566  0.38096862  0.17364402     0.88300
C433        C  0.16656061  0.37639521  0.13047488     0.88400
C434        C  0.08065459  0.37957096  0.13065068     0.88500
O435        O  0.12423523  0.35236167  0.91407980    -0.73800
O436        O  0.12797132  0.34767307  0.84950580    -0.73800
O437        O  0.15833170  0.34982845  0.88373125    -0.73900
O438        O  0.09369165  0.35010450  0.87991497    -0.73900
O439        O  0.09401546  0.38770133  0.87906087    -0.73800
O440        O  0.15859329  0.38714232  0.87889389    -0.73800
O441        O  0.12609645  0.38517511  0.84702058    -0.73800
O442        O  0.12637069  0.38980286  0.91122823    -0.73900
Ni443      Ni  0.12603227  0.34860804  0.88191553     1.25400
Ni444      Ni  0.12629308  0.38877321  0.87899042     1.25400
C445        C  0.12505730  0.37192909  0.92325173     0.88400
C446        C  0.12725849  0.36576225  0.83769073     0.88300
C447        C  0.16907076  0.36842663  0.88147453     0.88400
C448        C  0.08321792  0.36900514  0.87901378     0.88500
O449        O  0.59901742  0.91225313  0.12292410    -0.73800
O450        O  0.59681338  0.84764463  0.12169279    -0.73800
O451        O  0.59655696  0.87933696  0.15472408    -0.73900
O452        O  0.59928686  0.88033961  0.09015273    -0.73900
O453        O  0.63677671  0.87767950  0.09163668    -0.73800
O454        O  0.63416788  0.87993141  0.15623277    -0.73800
O455        O  0.63427594  0.84640440  0.12502283    -0.73800
O456        O  0.63660867  0.91100780  0.12316513    -0.73900
Ni457      Ni  0.59657320  0.87995787  0.12232875     1.25400
Ni458      Ni  0.63680550  0.87868547  0.12404166     1.25400
C459        C  0.61817603  0.92227111  0.12317751     0.88400
C460        C  0.61517965  0.83641865  0.12335614     0.88300
C461        C  0.61494181  0.87988453  0.16605046     0.88400
C462        C  0.61842580  0.87879093  0.08026316     0.88500
O463        O  0.61267664  0.87478271  0.90638191    -0.73800
O464        O  0.60908208  0.87626947  0.84202026    -0.73800
O465        O  0.60905098  0.84314270  0.87403936    -0.73900
O466        O  0.61275817  0.90747542  0.87480766    -0.73900
O467        O  0.65027698  0.90549897  0.87289534    -0.73800
O468        O  0.64654558  0.84096388  0.87145931    -0.73800
O469        O  0.64658892  0.87384102  0.83986606    -0.73800
O470        O  0.65017147  0.87239204  0.90461519    -0.73900
Ni471      Ni  0.60957839  0.87544742  0.87434601     1.25400
Ni472      Ni  0.64976449  0.87309910  0.87212364     1.25400
C473        C  0.63189621  0.87342990  0.91612849     0.88400
C474        C  0.62723960  0.87550270  0.83037793     0.88300
C475        C  0.62718759  0.83149631  0.87282716     0.88400
C476        C  0.63207131  0.91708795  0.87408563     0.88500
O477        O  0.60338008  0.12581154  0.90690779    -0.73800
O478        O  0.60294481  0.12185944  0.84243106    -0.73800
O479        O  0.60349260  0.09182859  0.87640514    -0.73900
O480        O  0.60288456  0.15623581  0.87249162    -0.73900
O481        O  0.64048628  0.15678310  0.87417972    -0.73800
O482        O  0.64107753  0.09209148  0.87481788    -0.73800
O483        O  0.64051559  0.12414648  0.84207150    -0.73800
O484        O  0.64098083  0.12484133  0.90675965    -0.73900
Ni485      Ni  0.60183727  0.12397068  0.87461386     1.25400
Ni486      Ni  0.64212926  0.12447563  0.87444793     1.25400
C487        C  0.62224017  0.12558849  0.91747432     0.88400
C488        C  0.62163611  0.12245376  0.83167707     0.88300
C489        C  0.62234929  0.08133875  0.87579616     0.88400
C490        C  0.62155506  0.16708152  0.87282758     0.88500
O491        O  0.63072215  0.16206143  0.12389370    -0.73800
O492        O  0.62970435  0.09730757  0.12528596    -0.73800
O493        O  0.62985867  0.12903385  0.09233232    -0.73900
O494        O  0.63064363  0.13026395  0.15696051    -0.73900
O495        O  0.59303372  0.13069194  0.15742515    -0.73800
O496        O  0.59226265  0.13001648  0.09278031    -0.73800
O497        O  0.59210163  0.09804493  0.12537563    -0.73800
O498        O  0.59312000  0.16259523  0.12497804    -0.73900
Ni499      Ni  0.63158186  0.12965755  0.12461012     1.25400
Ni500      Ni  0.59130197  0.13035691  0.12514069     1.25400
C501        C  0.61204924  0.17295226  0.12437721     0.88400
C502        C  0.61068377  0.08703135  0.12543433     0.88300
C503        C  0.61092842  0.12930420  0.08191777     0.88400
C504        C  0.61196496  0.13062026  0.16782654     0.88500
O505        O  0.08456435  0.64855815  0.13038606    -0.73800
O506        O  0.14906265  0.64625966  0.13126859    -0.73800
O507        O  0.11715176  0.64769467  0.09842716    -0.73900
O508        O  0.11672044  0.64703221  0.16303977    -0.73900
O509        O  0.11449433  0.60945378  0.16264590    -0.73800
O510        O  0.11607618  0.61010374  0.09795667    -0.73800
O511        O  0.14766630  0.60866305  0.13094823    -0.73800
O512        O  0.08307858  0.61098349  0.12952274    -0.73900
Ni513      Ni  0.11688815  0.64871932  0.13077485     1.25400
Ni514      Ni  0.11528855  0.60844943  0.13026173     1.25400
C515        C  0.07320786  0.63019926  0.12969089     0.88400
C516        C  0.15896468  0.62707892  0.13145778     0.88300
C517        C  0.11675953  0.62902568  0.08755136     0.88400
C518        C  0.11563037  0.62814207  0.17341797     0.88500
O519        O  0.16076240  0.60257403  0.88167759    -0.73800
O520        O  0.09616760  0.60424854  0.87763126    -0.73800
O521        O  0.13056673  0.60505636  0.84726043    -0.73900
O522        O  0.12645060  0.60177082  0.91182599    -0.73900
O523        O  0.12833007  0.63929146  0.91362850    -0.73800
O524        O  0.12974817  0.64262567  0.84927230    -0.73800
O525        O  0.09702566  0.64172896  0.88067296    -0.73800
O526        O  0.16151828  0.64019666  0.88194434    -0.73900
Ni527      Ni  0.12847299  0.60203946  0.87951180     1.25400
Ni528      Ni  0.12924673  0.64227536  0.88147903     1.25400
C529        C  0.17173328  0.62116543  0.88216420     0.88400
C530        C  0.08597941  0.62329970  0.87869858     0.88300
C531        C  0.13034271  0.62444162  0.83768834     0.88400
C532        C  0.12667103  0.62005738  0.92332827     0.88500
O533        O  0.87848644  0.63704035  0.90383563    -0.73800
O534        O  0.87940149  0.63693457  0.83916269    -0.73800
O535        O  0.84638538  0.63726567  0.87115188    -0.73900
O536        O  0.91124518  0.63647558  0.87187135    -0.73900
O537        O  0.91050523  0.59888871  0.87070743    -0.73800
O538        O  0.84616148  0.59967803  0.87252496    -0.73800
O539        O  0.87727787  0.59935235  0.83922242    -0.73800
O540        O  0.87916669  0.59943544  0.90380037    -0.73900
Ni541      Ni  0.87887861  0.63830817  0.87148367     1.25400
Ni542      Ni  0.87828342  0.59802352  0.87153545     1.25400
C543        C  0.87882612  0.61822105  0.91445430     0.88400
C544        C  0.87830684  0.61812906  0.82861533     0.88300
C545        C  0.83564695  0.61850147  0.87211896     0.88400
C546        C  0.92150297  0.61744392  0.87134340     0.88500
O547        O  0.83421857  0.64702247  0.12055244    -0.73800
O548        O  0.89886772  0.64425183  0.12279919    -0.73800
O549        O  0.86765650  0.64618383  0.08951680    -0.73900
O550        O  0.86547613  0.64521876  0.15411631    -0.73900
O551        O  0.86571622  0.60759405  0.15352959    -0.73800
O552        O  0.86514175  0.60866444  0.08883883    -0.73800
O553        O  0.89737833  0.60671123  0.12102350    -0.73800
O554        O  0.83279316  0.60943697  0.12166966    -0.73900
Ni555      Ni  0.86658054  0.64701391  0.12178139     1.25400
Ni556      Ni  0.86510877  0.60675956  0.12121287     1.25400
C557        C  0.82290057  0.62864164  0.12101470     0.88400
C558        C  0.90874651  0.62502023  0.12213244     0.88300
C559        C  0.86691862  0.62760559  0.07854972     0.88400
C560        C  0.86589232  0.62623644  0.16442511     0.88500
O561        O  0.37448803  0.41528046  0.10754684    -0.73800
O562        O  0.37440736  0.35052501  0.10596350    -0.73800
O563        O  0.34231039  0.38323120  0.10548614    -0.73900
O564        O  0.40696301  0.38275736  0.10801178    -0.73900
O565        O  0.40560735  0.38319307  0.14559410    -0.73800
O566        O  0.34101511  0.38076105  0.14300771    -0.73800
O567        O  0.37480399  0.34975788  0.14358698    -0.73800
O568        O  0.37211199  0.41443729  0.14506954    -0.73900
Ni569      Ni  0.37463648  0.38297579  0.10540900     1.25400
Ni570      Ni  0.37330729  0.38202243  0.14565446     1.25400
C571        C  0.37284378  0.42551189  0.12651440     0.88400
C572        C  0.37493575  0.33953273  0.12456528     0.88300
C573        C  0.33104494  0.38192430  0.12385305     0.88400
C574        C  0.41692861  0.38294611  0.12720808     0.88500
O575        O  0.36330787  0.66449841  0.11789508    -0.73800
O576        O  0.36413567  0.59997206  0.11995155    -0.73800
O577        O  0.33171792  0.63185588  0.12157772    -0.73900
O578        O  0.39604984  0.63255038  0.11627184    -0.73900
O579        O  0.39905464  0.63276773  0.15377239    -0.73800
O580        O  0.33468385  0.63465361  0.15901738    -0.73800
O581        O  0.36617372  0.60114268  0.15749093    -0.73800
O582        O  0.36796055  0.66578179  0.15524240    -0.73900
Ni583      Ni  0.36370440  0.63217474  0.11758843     1.25400
Ni584      Ni  0.36704264  0.63358656  0.15774026     1.25400
C585        C  0.36581147  0.67568908  0.13618398     0.88400
C586        C  0.36513773  0.58990767  0.13904108     0.88300
C587        C  0.32268436  0.63343766  0.14110302     0.88400
C588        C  0.40814400  0.63278184  0.13417862     0.88500
O589        O  0.64699016  0.62856608  0.11412511    -0.73800
O590        O  0.58233148  0.63015251  0.11763817    -0.73800
O591        O  0.61522443  0.66155262  0.11533311    -0.73900
O592        O  0.61381820  0.59698424  0.11641216    -0.73900
O593        O  0.61420329  0.59753942  0.15402232    -0.73800
O594        O  0.61933291  0.66195788  0.15274781    -0.73800
O595        O  0.58449889  0.63223701  0.15513159    -0.73800
O596        O  0.64881348  0.62704526  0.15167495    -0.73900
Ni597      Ni  0.61452285  0.62927715  0.11452133     1.25400
Ni598      Ni  0.61676244  0.62974200  0.15473757     1.25400
C599        C  0.65850453  0.62719941  0.13238206     0.88400
C600        C  0.57280275  0.63174335  0.13696867     0.88300
C601        C  0.61780170  0.67232685  0.13385868     0.88400
C602        C  0.61361571  0.58663941  0.13539294     0.88500
O603        O  0.65556542  0.37819881  0.14511843    -0.73800
O604        O  0.59114276  0.38013527  0.14096092    -0.73800
O605        O  0.62238975  0.34698892  0.14212572    -0.73900
O606        O  0.62391365  0.41170839  0.14371777    -0.73900
O607        O  0.62500193  0.41237859  0.10612181    -0.73800
O608        O  0.62672976  0.34794646  0.10473588    -0.73800
O609        O  0.59345371  0.37949361  0.10342136    -0.73800
O610        O  0.65797703  0.38096279  0.10764659    -0.73900
Ni611      Ni  0.62320957  0.37926310  0.14434362     1.25400
Ni612      Ni  0.62587222  0.38022905  0.10414127     1.25400
C613        C  0.66731775  0.37929904  0.12704448     0.88400
C614        C  0.58167817  0.37984549  0.12155238     0.88300
C615        C  0.62459042  0.33690757  0.12314867     0.88400
C616        C  0.62417119  0.42267171  0.12506974     0.88500
O617        O  0.38079213  0.65854067  0.89522240    -0.73800
O618        O  0.37716923  0.59398591  0.89445571    -0.73800
O619        O  0.41097969  0.62442441  0.89469277    -0.73900
O620        O  0.34652838  0.62764347  0.89501699    -0.73900
O621        O  0.34631181  0.62849454  0.85737790    -0.73800
O622        O  0.41087072  0.62500155  0.85707501    -0.73800
O623        O  0.37686210  0.59431375  0.85684310    -0.73800
O624        O  0.38010188  0.65895519  0.85759223    -0.73900
Ni625      Ni  0.37883671  0.62617605  0.89617976     1.25400
Ni626      Ni  0.37854300  0.62669839  0.85586988     1.25400
C627        C  0.38110150  0.66933714  0.87650256     0.88400
C628        C  0.37653806  0.58351781  0.87557749     0.88300
C629        C  0.42152333  0.62410003  0.87586894     0.88400
C630        C  0.33584956  0.62845782  0.87625702     0.88500
O631        O  0.62949563  0.65645363  0.84882634    -0.73800
O632        O  0.62950322  0.59180552  0.84990843    -0.73800
O633        O  0.59704917  0.62407189  0.84823264    -0.73900
O634        O  0.66158384  0.62449084  0.85040253    -0.73900
O635        O  0.66029264  0.62555261  0.88803355    -0.73800
O636        O  0.59575137  0.62404103  0.88583122    -0.73800
O637        O  0.62879587  0.59264368  0.88751329    -0.73800
O638        O  0.62715788  0.65713534  0.88639744    -0.73900
Ni639      Ni  0.62940255  0.62415796  0.84799067     1.25400
Ni640      Ni  0.62794074  0.62486850  0.88828491     1.25400
C641        C  0.62847494  0.66736657  0.86742880     0.88400
C642        C  0.62942196  0.58160455  0.86896796     0.88300
C643        C  0.58578639  0.62387010  0.86666365     0.88400
C644        C  0.67146730  0.62533635  0.86956041     0.88500
O645        O  0.65930016  0.37537205  0.88754580    -0.73800
O646        O  0.59475088  0.37688478  0.88978576    -0.73800
O647        O  0.62658476  0.34377877  0.89168356    -0.73900
O648        O  0.62785303  0.40809993  0.88559456    -0.73900
O649        O  0.62753541  0.40463486  0.84814281    -0.73800
O650        O  0.62361429  0.34037866  0.85432466    -0.73800
O651        O  0.59335547  0.37444113  0.85227948    -0.73800
O652        O  0.65793201  0.37024674  0.85027582    -0.73900
Ni653      Ni  0.62712729  0.37613018  0.88998994     1.25400
Ni654      Ni  0.62555811  0.37231736  0.84990852     1.25400
C655        C  0.66918849  0.37241712  0.86859863     0.88400
C656        C  0.58341981  0.37613080  0.87139737     0.88300
C657        C  0.62487289  0.33151343  0.87397683     0.88400
C658        C  0.62822456  0.41695160  0.86588940     0.88500
O659        O  0.37569953  0.40877979  0.88464617    -0.73800
O660        O  0.37780401  0.34419014  0.88648150    -0.73800
O661        O  0.40889146  0.37736243  0.88403250    -0.73900
O662        O  0.34434926  0.37540413  0.88717306    -0.73900
O663        O  0.34252394  0.37634353  0.84958735    -0.73800
O664        O  0.40709796  0.37474949  0.84655434    -0.73800
O665        O  0.37394892  0.34308732  0.84905559    -0.73800
O666        O  0.37529221  0.40777027  0.84705016    -0.73900
Ni667      Ni  0.37672787  0.37648900  0.88692839     1.25400
Ni668      Ni  0.37467996  0.37542124  0.84670910     1.25400
C669        C  0.37533181  0.41892080  0.86554980     0.88400
C670        C  0.37598683  0.33304614  0.86808291     0.88300
C671        C  0.41863136  0.37605545  0.86479805     0.88400
C672        C  0.33285948  0.37593830  0.86888119     0.88500
C673        C  0.51955367  0.37916221  0.88210619     0.16600
C674        C  0.49784837  0.38065464  0.89135174    -0.32400
C675        C  0.47945820  0.37823764  0.87666050     0.21000
C676        C  0.48249860  0.37457460  0.85376683     0.03200
C677        C  0.50420653  0.37312452  0.84451558    -0.22200
C678        C  0.52260119  0.37549609  0.85921287     0.12400
S679        S  0.54405026  0.38125179  0.89712424    -0.05800
C680        C  0.55859244  0.37709548  0.87229879    -0.09300
C681        C  0.54496664  0.37437305  0.85347211    -0.25900
S682        S  0.45798886  0.37209900  0.83881341    -0.03100
C683        C  0.44346310  0.37601827  0.86367928    -0.16500
C684        C  0.45710102  0.37904096  0.88245429    -0.14500
H685        H  0.49539930  0.38347728  0.90923002     0.20800
H686        H  0.50665497  0.37020381  0.82665147     0.16900
H687        H  0.55109449  0.37147853  0.83650970     0.19400
H688        H  0.45098274  0.38173130  0.89945246     0.12700
C689        C  0.63180071  0.51805499  0.88037191     0.16600
C690        C  0.63253645  0.49661312  0.89016726    -0.32400
C691        C  0.63143097  0.47795035  0.87575811     0.21000
C692        C  0.62990411  0.48042574  0.85255710     0.03200
C693        C  0.62937674  0.50194794  0.84269965    -0.22200
C694        C  0.63026205  0.52067890  0.85717871     0.12400
S695        S  0.63217799  0.54267347  0.89515935    -0.05800
C696        C  0.63019580  0.55682002  0.86988202    -0.09300
C697        C  0.62940722  0.54297931  0.85101677    -0.25900
S698        S  0.62824193  0.45548142  0.83816624    -0.03100
C699        C  0.62942120  0.44167573  0.86374649    -0.16500
C700        C  0.63121546  0.45582291  0.88225445    -0.14500
H701        H  0.63359996  0.49456279  0.90828450     0.20800
H702        H  0.62803492  0.50399978  0.82460493     0.16900
H703        H  0.62807694  0.54889410  0.83379070     0.19400
H704        H  0.63207242  0.45022146  0.89961944     0.12700
C705        C  0.37341146  0.48299471  0.85547868     0.16600
C706        C  0.37252765  0.50490056  0.84654484    -0.32400
C707        C  0.37387695  0.52302719  0.86172711     0.21000
C708        C  0.37584894  0.51946503  0.88475967     0.03200
C709        C  0.37663997  0.49761395  0.89367019    -0.22200
C710        C  0.37543189  0.47953149  0.87851685     0.12400
S711        S  0.37246318  0.45871008  0.83998012    -0.05800
C712        C  0.37485970  0.44376947  0.86483003    -0.09300
C713        C  0.37622785  0.45710034  0.88398187    -0.25900
S714        S  0.37748794  0.54352253  0.90040534    -0.03100
C715        C  0.37564708  0.55868527  0.87569358    -0.16500
C716        C  0.37375129  0.54556400  0.85639559    -0.14500
H717        H  0.37103649  0.50769016  0.82854726     0.20800
H718        H  0.37829190  0.49482532  0.91165307     0.16900
H719        H  0.37783787  0.45072059  0.90102574     0.19400
H720        H  0.37249910  0.55214509  0.83939776     0.12700
C721        C  0.48533966  0.62037932  0.88522084     0.16600
C722        C  0.50713282  0.61909508  0.89420509    -0.32400
C723        C  0.52527134  0.62108110  0.87920748     0.21000
C724        C  0.52191444  0.62398015  0.85624304     0.03200
C725        C  0.50009137  0.62510985  0.84722680    -0.22200
C726        C  0.48192843  0.62331722  0.86226484     0.12400
S727        S  0.46118826  0.61914860  0.90074457    -0.05800
C728        C  0.44627024  0.62271796  0.87607282    -0.09300
C729        C  0.45948663  0.62457387  0.85687977    -0.25900
S730        S  0.54619757  0.62626027  0.84095007    -0.03100
C731        C  0.56100431  0.62341411  0.86579689    -0.16500
C732        C  0.54766088  0.62076566  0.88479789    -0.14500
H733        H  0.50983266  0.61692609  0.91213052     0.20800
H734        H  0.49739126  0.62752121  0.82932899     0.16900
H735        H  0.45304407  0.62705007  0.83996903     0.19400
H736        H  0.55399966  0.61875712  0.90180633     0.12700
C737        C  0.61405278  0.52262862  0.14507702     0.16600
C738        C  0.61476004  0.50073692  0.15401033    -0.32400
C739        C  0.61824934  0.48284126  0.13892301     0.21000
C740        C  0.62073907  0.48658685  0.11596899     0.03200
C741        C  0.61987700  0.50842108  0.10703834    -0.22200
C742        C  0.61652822  0.52629080  0.12211197     0.12400
S743        S  0.61098480  0.54670227  0.16058391    -0.05800
C744        C  0.61320644  0.56183102  0.13585291    -0.09300
C745        C  0.61589125  0.54872290  0.11669836    -0.25900
S746        S  0.62475661  0.46276121  0.10042176    -0.03100
C747        C  0.62306971  0.44746992  0.12507082    -0.16500
C748        C  0.61962677  0.46037092  0.14428086    -0.14500
H749        H  0.61291380  0.49780608  0.17194293     0.20800
H750        H  0.62191958  0.51136935  0.08912763     0.16900
H751        H  0.61790296  0.55528276  0.09976971     0.19400
H752        H  0.61794178  0.45366167  0.16118432     0.12700
C753        C  0.50927887  0.63501744  0.14908244     0.16600
C754        C  0.48781667  0.63614349  0.15887035    -0.32400
C755        C  0.46912163  0.63486543  0.14445923     0.21000
C756        C  0.47160770  0.63278324  0.12130058     0.03200
C757        C  0.49309134  0.63178484  0.11149035    -0.22200
C758        C  0.51180875  0.63286500  0.12593287     0.12400
S759        S  0.53405677  0.63567719  0.16372337    -0.05800
C760        C  0.54803289  0.63294751  0.13839315    -0.09300
C761        C  0.53402801  0.63170734  0.11969030    -0.25900
S762        S  0.44673877  0.63123517  0.10682020    -0.03100
C763        C  0.43288069  0.63318406  0.13229173    -0.16500
C764        C  0.44695481  0.63512885  0.15085637    -0.14500
H765        H  0.48577431  0.63769646  0.17694669     0.20800
H766        H  0.49512938  0.63001836  0.09342903     0.16900
H767        H  0.53978855  0.62986136  0.10245725     0.19400
H768        H  0.44127238  0.63654461  0.16815183     0.12700
C769        C  0.48077031  0.38289175  0.13840140     0.16600
C770        C  0.50243939  0.38358893  0.14780879    -0.32400
C771        C  0.52085222  0.38165106  0.13309541     0.21000
C772        C  0.51789048  0.37907236  0.11004433     0.03200
C773        C  0.49620426  0.37829486  0.10064378    -0.22200
C774        C  0.47777235  0.38033289  0.11534938     0.12400
S775        S  0.45626451  0.38509651  0.15335590    -0.05800
C776        C  0.44176704  0.38269024  0.12826649    -0.09300
C777        C  0.45541692  0.38021551  0.10942868    -0.25900
S778        S  0.54246718  0.37722064  0.09509328    -0.03100
C779        C  0.55687543  0.37991367  0.12019208    -0.16500
C780        C  0.54316639  0.38210579  0.13901673    -0.14500
H781        H  0.50484470  0.38563367  0.16578680     0.20800
H782        H  0.49380259  0.37630789  0.08265456     0.16900
H783        H  0.44931105  0.37837200  0.09231575     0.19400
H784        H  0.54920648  0.38402314  0.15614146     0.12700
C785        C  0.36692060  0.48958644  0.11858369     0.16600
C786        C  0.36400702  0.51147023  0.11016210    -0.32400
C787        C  0.36492829  0.52938977  0.12555724     0.21000
C788        C  0.36844765  0.52574136  0.14838194     0.03200
C789        C  0.37117476  0.50379641  0.15685385    -0.22200
C790        C  0.37035353  0.48584010  0.14141145     0.12400
S791        S  0.36684341  0.46570592  0.10252005    -0.05800
C792        C  0.37135357  0.45036018  0.12678476    -0.09300
C793        C  0.37281565  0.46331289  0.14624955    -0.25900
S794        S  0.36953680  0.54988809  0.16413440    -0.03100
C795        C  0.36536979  0.56503649  0.13965774    -0.16500
C796        C  0.36308458  0.55185194  0.12046935    -0.14500
H797        H  0.36136682  0.51442107  0.09233481     0.20800
H798        H  0.37400860  0.50086297  0.17465344     0.16900
H799        H  0.37559292  0.45661772  0.16301249     0.19400
H800        H  0.36052416  0.55837163  0.10360202     0.12700
C801        C  0.75895419  0.63593218  0.11384545     0.16600
C802        C  0.73703234  0.64146180  0.10677236    -0.32400
C803        C  0.71889305  0.63254806  0.11913166     0.21000
C804        C  0.72246042  0.61907565  0.13791992     0.03200
C805        C  0.74432723  0.61313678  0.14466545    -0.22200
C806        C  0.76242342  0.62170509  0.13208827     0.12400
S807        S  0.78325763  0.64554127  0.10163050    -0.05800
C808        C  0.79813634  0.62959871  0.12082390    -0.09300
C809        C  0.78488649  0.61773478  0.13595410    -0.25900
S810        S  0.69839186  0.61115073  0.15155819    -0.03100
C811        C  0.68325873  0.62563116  0.13144027    -0.16500
C812        C  0.69633994  0.63606673  0.11508939    -0.14500
H813        H  0.73424627  0.65234502  0.09239620     0.20800
H814        H  0.74711699  0.60243340  0.15917665     0.16900
H815        H  0.79138139  0.60708585  0.14928571     0.19400
H816        H  0.68973038  0.64618503  0.10140875     0.12700
C817        C  0.77185261  0.60876501  0.87621601     0.16600
C818        C  0.75017513  0.59974645  0.87885509    -0.32400
C819        C  0.73180881  0.61403811  0.87475476     0.21000
C820        C  0.73487331  0.63629433  0.86819378     0.03200
C821        C  0.75657044  0.64539697  0.86587769    -0.22200
C822        C  0.77495615  0.63112034  0.87007208     0.12400
S823        S  0.79623417  0.59396380  0.87969119    -0.05800
C824        C  0.81084909  0.61817160  0.87298477    -0.09300
C825        C  0.79735529  0.63670023  0.86837877    -0.25900
S826        S  0.71041959  0.65061504  0.86311535    -0.03100
C827        C  0.69604839  0.62648686  0.87026386    -0.16500
C828        C  0.70945464  0.60834494  0.87615887    -0.14500
H829        H  0.74774176  0.58233672  0.88367468     0.20800
H830        H  0.75900654  0.66273710  0.86081643     0.16900
H831        H  0.80356924  0.65319995  0.86370101     0.19400
H832        H  0.70317922  0.59186470  0.88083420     0.12700
C833        C  0.87722593  0.60871949  0.97843658     0.16600
C834        C  0.87621235  0.59966426  0.00023620    -0.32400
C835        C  0.87320859  0.61468941  0.01823407     0.21000
C836        C  0.87157405  0.63775219  0.01472666     0.03200
C837        C  0.87270925  0.64683249  0.99291724    -0.22200
C838        C  0.87547302  0.63176828  0.97488529     0.12400
S839        S  0.87995178  0.59319816  0.95437885    -0.05800
C840        C  0.87854637  0.61797709  0.93928254    -0.09300
C841        C  0.87630782  0.63721209  0.95241528    -0.25900
S842        S  0.86803594  0.65311844  0.03880913    -0.03100
C843        C  0.86855230  0.62818971  0.05376491    -0.16500
C844        C  0.87143211  0.60908597  0.04059695    -0.14500
H845        H  0.87744463  0.58165249  0.00302394     0.20800
H846        H  0.87128220  0.66482815  0.99011138     0.16900
H847        H  0.87494142  0.65420999  0.94586345     0.19400
H848        H  0.87237154  0.59202482  0.04705386     0.12700
C849        C  0.23558282  0.61356526  0.88896555     0.16600
C850        C  0.25745453  0.60681898  0.89492272    -0.32400
C851        C  0.27556475  0.61880811  0.88553109     0.21000
C852        C  0.27208272  0.63642113  0.87052638     0.03200
C853        C  0.25023037  0.64350271  0.86500681    -0.22200
C854        C  0.23213479  0.63180061  0.87472408     0.12400
S855        S  0.21133820  0.60079332  0.89789288    -0.05800
C856        C  0.19647201  0.62069961  0.88285654    -0.09300
C857        C  0.20969715  0.63619214  0.87144569    -0.25900
S858        S  0.29624417  0.64786518  0.85983223    -0.03100
C859        C  0.31115703  0.62924735  0.87633364    -0.16500
C860        C  0.29804062  0.61485298  0.88922202    -0.14500
H861        H  0.26023202  0.59278778  0.90624142     0.20800
H862        H  0.24745300  0.65741265  0.85353413     0.16900
H863        H  0.20321403  0.64966672  0.86097270     0.19400
H864        H  0.30462020  0.60187981  0.90024797     0.12700
C865        C  0.02230604  0.63460441  0.87638339     0.16600
C866        C  0.00069394  0.64416995  0.87590552    -0.32400
C867        C  0.98225430  0.62949412  0.87404649     0.21000
C868        C  0.98521184  0.60632993  0.87274743     0.03200
C869        C  0.00681740  0.59676880  0.87322073    -0.22200
C870        C  0.02525240  0.61144080  0.87505824     0.12400
S871        S  0.04679643  0.64951377  0.87854750    -0.05800
C872        C  0.06120309  0.62428407  0.87762789    -0.09300
C873        C  0.04756026  0.60539569  0.87576375    -0.25900
S874        S  0.96074045  0.59138240  0.87077166    -0.03100
C875        C  0.94630317  0.61658745  0.87171717    -0.16500
C876        C  0.95992840  0.63550980  0.87342757    -0.14500
H877        H  0.99835850  0.66224722  0.87695585     0.20800
H878        H  0.00915005  0.57868788  0.87222715     0.16900
H879        H  0.05362356  0.58819019  0.87495468     0.19400
H880        H  0.95383511  0.65269907  0.87436074     0.12700
C881        C  0.25912057  0.64310754  0.14480893     0.16600
C882        C  0.23730003  0.65205744  0.14658414    -0.32400
C883        C  0.21925934  0.63838394  0.13965234     0.21000
C884        C  0.22273485  0.61667798  0.13166330     0.03200
C885        C  0.24452949  0.60786645  0.12960027    -0.22200
C886        C  0.26255879  0.62163245  0.13617791     0.12400
S887        S  0.28336121  0.65697712  0.15200016    -0.05800
C888        C  0.29810408  0.63377331  0.14272385    -0.09300
C889        C  0.28494368  0.61629077  0.13472394    -0.25900
S890        S  0.19864852  0.60247770  0.12487830    -0.03100
C891        C  0.18370807  0.62617396  0.13245971    -0.16500
C892        C  0.19685593  0.64403237  0.13990748    -0.14500
H893        H  0.23452042  0.66890173  0.15296425     0.20800
H894        H  0.24731740  0.59107675  0.12307638     0.16900
H895        H  0.29146218  0.60064908  0.12795786     0.19400
H896        H  0.19034327  0.66011337  0.14554675     0.12700
C897        C  0.00958277  0.64163789  0.12731926     0.16600
C898        C  0.98801065  0.65122579  0.12645029    -0.32400
C899        C  0.96954521  0.63654680  0.12499305     0.21000
C900        C  0.97239732  0.61334301  0.12441491     0.03200
C901        C  0.99398236  0.60374152  0.12530491    -0.22200
C902        C  0.01245511  0.61843554  0.12677329     0.12400
S903        S  0.03410634  0.65658263  0.12897275    -0.05800
C904        C  0.04843438  0.63131239  0.12891609    -0.09300
C905        C  0.03474109  0.61239144  0.12771645    -0.25900
S906        S  0.94781918  0.59846844  0.12270292    -0.03100
C907        C  0.93353299  0.62379306  0.12283739    -0.16500
C908        C  0.94727996  0.64265152  0.12408016    -0.14500
H909        H  0.98572069  0.66932629  0.12688407     0.20800
H910        H  0.99627401  0.58564152  0.12487156     0.16900
H911        H  0.04076463  0.59516006  0.12742083     0.19400
H912        H  0.94130592  0.65989951  0.12442105     0.12700
C913        C  0.11828927  0.63866916  0.02355196     0.16600
C914        C  0.11925988  0.64769260  0.00175494    -0.32400
C915        C  0.12115099  0.63256802  0.98369867     0.21000
C916        C  0.12179289  0.60944403  0.98709379     0.03200
C917        C  0.12065344  0.60039010  0.00892039    -0.22200
C918        C  0.11898656  0.61555482  0.02702811     0.12400
S919        S  0.11675634  0.65427502  0.04767671    -0.05800
C920        C  0.11716652  0.62942395  0.06271153    -0.09300
C921        C  0.11826673  0.61013159  0.04950132    -0.25900
S922        S  0.12435068  0.59403104  0.96286345    -0.03100
C923        C  0.12474768  0.61905583  0.94806673    -0.16500
C924        C  0.12283553  0.63817352  0.96137569    -0.14500
H925        H  0.11884563  0.66574031  0.99900396     0.20800
H926        H  0.12129081  0.58235217  0.01168347     0.16900
H927        H  0.11880397  0.59307295  0.05599782     0.19400
H928        H  0.12270179  0.65530668  0.95505256     0.12700
C929        C  0.63202509  0.27312213  0.11722894     0.16600
C930        C  0.63967071  0.25114664  0.11298768    -0.32400
C931        C  0.62557919  0.23322368  0.11932000     0.21000
C932        C  0.60464179  0.23702322  0.12903267     0.03200
C933        C  0.59716150  0.25896213  0.13360594    -0.22200
C934        C  0.61143025  0.27684814  0.12769440     0.12400
S935        S  0.64634263  0.29717172  0.11041286    -0.05800
C936        C  0.62466040  0.31225032  0.12242217    -0.09300
C937        C  0.60725788  0.29932513  0.13102029    -0.25900
S938        S  0.58972348  0.21310991  0.13476526    -0.03100
C939        C  0.61216656  0.19775647  0.12455130    -0.16500
C940        C  0.63011157  0.21066309  0.11692371    -0.14500
H941        H  0.65583889  0.24815962  0.10512507     0.20800
H942        H  0.58097833  0.26195032  0.14144087     0.16900
H943        H  0.59222886  0.30605084  0.13888015     0.19400
H944        H  0.64551833  0.20391300  0.10986537     0.12700
C945        C  0.63135618  0.26810747  0.88495080     0.16600
C946        C  0.63768314  0.24662570  0.89257261    -0.32400
C947        C  0.62920976  0.22788974  0.88085326     0.21000
C948        C  0.61477247  0.23042203  0.86260973     0.03200
C949        C  0.60889789  0.25188251  0.85466796    -0.22200
C950        C  0.61764271  0.27059655  0.86616273     0.12400
S951        S  0.63946843  0.29298272  0.89703221    -0.05800
C952        C  0.62480969  0.30682769  0.87611882    -0.09300
C953        C  0.61405971  0.29279007  0.86084671    -0.25900
S954        S  0.60512614  0.20564955  0.85157250    -0.03100
C955        C  0.62116668  0.19174899  0.87134561    -0.16500
C956        C  0.63328481  0.20563891  0.88569513    -0.14500
H957        H  0.64862041  0.24460523  0.90704097     0.20800
H958        H  0.59788883  0.25390494  0.84025352     0.16900
H959        H  0.60412554  0.29853994  0.84664659     0.19400
H960        H  0.64399221  0.19975627  0.89926429     0.12700
C961        C  0.63136882  0.12672648  0.98160586     0.16600
C962        C  0.64013217  0.12715680  0.00355443    -0.32400
C963        C  0.62474553  0.12764993  0.02150652     0.21000
C964        C  0.60165418  0.12765756  0.01780657     0.03200
C965        C  0.59288909  0.12716929  0.99585306    -0.22200
C966        C  0.60827853  0.12674195  0.97789284     0.12400
S967        S  0.64721623  0.12623509  0.95757943    -0.05800
C968        C  0.62247736  0.12610387  0.94231656    -0.09300
C969        C  0.60306578  0.12637726  0.95536848    -0.25900
S970        S  0.58582638  0.12839178  0.04185389    -0.03100
C971        C  0.61058395  0.12870657  0.05708194    -0.16500
C972        C  0.62997682  0.12823297  0.04401124    -0.14500
H973        H  0.65815731  0.12717126  0.00650916     0.20800
H974        H  0.57486190  0.12719338  0.99289774     0.16900
H975        H  0.58604421  0.12631250  0.94873612     0.19400
H976        H  0.64700656  0.12833309  0.05061815     0.12700
C977        C  0.61781212  0.76812324  0.88044810     0.16600
C978        C  0.61076284  0.74656640  0.88711432    -0.32400
C979        C  0.62118754  0.72798851  0.87683224     0.21000
C980        C  0.63763443  0.73075728  0.86042109     0.03200
C981        C  0.64509019  0.75227613  0.85420545    -0.22200
C982        C  0.63490255  0.77082409  0.86470039     0.12400
S983        S  0.60673754  0.79283260  0.89022599    -0.05800
C984        C  0.62576660  0.80684550  0.87337165    -0.09300
C985        C  0.63980726  0.79304847  0.86084719    -0.25900
S986        S  0.64728355  0.70619776  0.84899694    -0.03100
C987        C  0.62943793  0.69203706  0.86693955    -0.16500
C988        C  0.61667430  0.70569454  0.88094257    -0.14500
H989        H  0.59765043  0.74438091  0.89957487     0.20800
H990        H  0.65809340  0.75446581  0.84162911     0.16900
H991        H  0.65261129  0.79898266  0.84928983     0.19400
H992        H  0.60452706  0.69963947  0.89312544     0.12700
C993        C  0.64262926  0.98097424  0.87507649     0.16600
C994        C  0.65159203  0.00286158  0.87517377    -0.32400
C995        C  0.63632501  0.02095461  0.87554661     0.21000
C996        C  0.61320716  0.01740088  0.87582495     0.03200
C997        C  0.60427627  0.99557978  0.87573340    -0.22200
C998        C  0.61950093  0.97754674  0.87535562     0.12400
S999        S  0.65814907  0.95667914  0.87450246    -0.05800
C1000       C  0.63314792  0.94185262  0.87460521    -0.09300
C1001       C  0.61397528  0.95518743  0.87512174    -0.25900
S1002       S  0.59745453  0.04142298  0.87619829    -0.03100
C1003       C  0.62224415  0.05654284  0.87599421    -0.16500
C1004       C  0.64163613  0.04345719  0.87562256    -0.14500
H1005       H  0.66963504  0.00566439  0.87493042     0.20800
H1006       H  0.58623337  0.99277534  0.87591369     0.16900
H1007       H  0.59684594  0.94885610  0.87522553     0.19400
H1008       H  0.65866821  0.05004342  0.87536258     0.12700
C1009       C  0.62775218  0.73597799  0.13777636     0.16600
C1010       C  0.63564128  0.75774723  0.14249082    -0.32400
C1011       C  0.62443235  0.77591551  0.13231107     0.21000
C1012       C  0.60597413  0.77260845  0.11832196     0.03200
C1013       C  0.59843598  0.75080732  0.11314947    -0.22200
C1014       C  0.60986039  0.73262323  0.12307502     0.12400
S1015       S  0.63847835  0.71178049  0.14913916    -0.05800
C1016       C  0.61909930  0.69700364  0.13339895    -0.09300
C1017       C  0.60505375  0.71020482  0.12020458    -0.25900
S1018       S  0.59385819  0.79693206  0.10877334    -0.03100
C1019       C  0.61426102  0.81166163  0.12328690    -0.16500
C1020       C  0.62948693  0.79831187  0.13493843    -0.14500
H1021       H  0.64974464  0.76041633  0.15374726     0.20800
H1022       H  0.58420128  0.74814686  0.10206254     0.16900
H1023       H  0.59179402  0.70374239  0.10945624     0.19400
H1024       H  0.64319683  0.80468479  0.14516651     0.12700
C1025       C  0.60022400  0.02311487  0.12418823     0.16600
C1026       C  0.59098201  0.00140752  0.12285015    -0.32400
C1027       C  0.60586870  0.98305749  0.12371197     0.21000
C1028       C  0.62894593  0.98614946  0.12588719     0.03200
C1029       C  0.63819379  0.00787629  0.12730779    -0.22200
C1030       C  0.62330014  0.02624744  0.12633870     0.12400
S1031       S  0.58500301  0.04751263  0.12314625    -0.05800
C1032       C  0.60997915  0.06218306  0.12550703    -0.09300
C1033       C  0.62901652  0.04866035  0.12710160    -0.25900
S1034       S  0.64412508  0.96167392  0.12646052    -0.03100
C1035       C  0.61910799  0.94710516  0.12373478    -0.16500
C1036       C  0.60011539  0.96069927  0.12250923    -0.14500
H1037       H  0.57296657  0.99893102  0.12109950     0.20800
H1038       H  0.65621683  0.01035448  0.12896329     0.16900
H1039       H  0.64611978  0.05488716  0.12863728     0.19400
H1040       H  0.58299752  0.95455584  0.12080332     0.12700
C1041       C  0.64114540  0.87248735  0.98041194     0.16600
C1042       C  0.64946298  0.87168886  0.00258497    -0.32400
C1043       C  0.63394607  0.87470844  0.02026298     0.21000
C1044       C  0.61121747  0.87825002  0.01602087     0.03200
C1045       C  0.60294515  0.87897323  0.99396035    -0.22200
C1046       C  0.61839412  0.87603417  0.97637141     0.12400
S1047       S  0.65701254  0.86963974  0.95643328    -0.05800
C1048       C  0.63263140  0.87328862  0.94096572    -0.09300
C1049       C  0.61343415  0.87644023  0.95388852    -0.25900
S1050       S  0.59503248  0.88153821  0.03952932    -0.03100
C1051       C  0.61908637  0.87818912  0.05544128    -0.16500
C1052       C  0.63859117  0.87467913  0.04295198    -0.14500
H1053       H  0.66721094  0.86895261  0.00590529     0.20800
H1054       H  0.58520427  0.88178871  0.99063518     0.16900
H1055       H  0.59665610  0.87911300  0.94716803     0.19400
H1056       H  0.65521763  0.87216248  0.05007996     0.12700
C1057       C  0.26885556  0.38320494  0.86533299     0.16600
C1058       C  0.24678613  0.38989647  0.86023113    -0.32400
C1059       C  0.22913419  0.37890178  0.87145223     0.21000
C1060       C  0.23320155  0.36172428  0.88680039     0.03200
C1061       C  0.25532200  0.35539363  0.89231640    -0.22200
C1062       C  0.27301307  0.36666730  0.88135608     0.12400
S1063       S  0.29248975  0.39389158  0.85288292    -0.05800
C1064       C  0.30816486  0.37641182  0.86992291    -0.09300
C1065       C  0.29565167  0.36295085  0.88434260    -0.25900
S1066       S  0.20935413  0.34956927  0.89749391    -0.03100
C1067       C  0.19383695  0.36829386  0.88160225    -0.16500
C1068       C  0.20657374  0.38298073  0.86867033    -0.14500
H1069       H  0.24351122  0.40295936  0.84792526     0.20800
H1070       H  0.25859023  0.34217171  0.90445215     0.16900
H1071       H  0.30273264  0.35079618  0.89597569     0.19400
H1072       H  0.19966121  0.39560779  0.85744510     0.12700
C1073       C  0.23041713  0.36995968  0.13827222     0.16600
C1074       C  0.25223202  0.36482141  0.14581209    -0.32400
C1075       C  0.27044557  0.37398587  0.13382039     0.21000
C1076       C  0.26713539  0.38733773  0.11490312     0.03200
C1077       C  0.24530336  0.39289225  0.10764887    -0.22200
C1078       C  0.22707438  0.38405273  0.11990155     0.12400
S1079       S  0.20612695  0.36005641  0.15019455    -0.05800
C1080       C  0.19131848  0.37557946  0.13065240    -0.09300
C1081       C  0.20460596  0.38764887  0.11567647    -0.25900
S1082       S  0.29149652  0.39592213  0.10211683    -0.03100
C1083       C  0.30625620  0.38195267  0.12289719    -0.16500
C1084       C  0.29287311  0.37109404  0.13867187    -0.14500
H1085       H  0.25488821  0.35412720  0.16032586     0.20800
H1086       H  0.24264862  0.40356300  0.09311089     0.16900
H1087       H  0.19814918  0.39821412  0.10227330     0.19400
H1088       H  0.29922751  0.36139396  0.15275297     0.12700
C1089       C  0.11909312  0.36064577  0.02487859     0.16600
C1090       C  0.11706089  0.35024091  0.00374073    -0.32400
C1091       C  0.12075278  0.36356678  0.98455264     0.21000
C1092       C  0.12602113  0.38628295  0.98633635     0.03200
C1093       C  0.12790556  0.39671406  0.00745717    -0.22200
C1094       C  0.12435886  0.38336332  0.02663773     0.12400
S1095       S  0.11601861  0.34725199  0.05016280    -0.05800
C1096       C  0.12192892  0.37251435  0.06326526    -0.09300
C1097       C  0.12586468  0.39031887  0.04863712    -0.25900
S1098       S  0.12998665  0.39952060  0.96112128    -0.03100
C1099       C  0.12460515  0.37417374  0.94796911    -0.16500
C1100       C  0.11996145  0.35648341  0.96254020    -0.14500
H1101       H  0.11301923  0.33249882  0.00232302     0.20800
H1102       H  0.13213164  0.41441856  0.00887883     0.16900
H1103       H  0.12995273  0.40734652  0.05381558     0.19400
H1104       H  0.11618041  0.33940384  0.95731918     0.12700
C1105       C  0.76891168  0.35224669  0.85759052     0.16600
C1106       C  0.74677047  0.34505994  0.85322367    -0.32400
C1107       C  0.72905566  0.35897507  0.86057113     0.21000
C1108       C  0.73322345  0.37887060  0.87216035     0.03200
C1109       C  0.75530346  0.38621117  0.87617085    -0.22200
C1110       C  0.77297021  0.37254991  0.86845758     0.12400
S1111       S  0.79280742  0.33775242  0.85045394    -0.05800
C1112       C  0.80834766  0.35961181  0.86168591    -0.09300
C1113       C  0.79553225  0.37697779  0.87063387    -0.25900
S1114       S  0.70958991  0.39282812  0.88075253    -0.03100
C1115       C  0.69389083  0.37205220  0.86802007    -0.16500
C1116       C  0.70637977  0.35512164  0.85783244    -0.14500
H1117       H  0.74351074  0.32938108  0.84454499     0.20800
H1118       H  0.75856323  0.40182921  0.88494749     0.16900
H1119       H  0.80236452  0.39189722  0.87858012     0.19400
H1120       H  0.69925379  0.34062781  0.84935927     0.12700
C1121       C  0.98298589  0.35017971  0.86909920     0.16600
C1122       C  0.00479424  0.34106808  0.86985219    -0.32400
C1123       C  0.02281760  0.35599071  0.87326929     0.21000
C1124       C  0.01928459  0.37897232  0.87576772     0.03200
C1125       C  0.99746746  0.38807952  0.87505288    -0.22200
C1126       C  0.97943703  0.37315416  0.87164622     0.12400
S1127       S  0.95894288  0.33488285  0.86520693    -0.05800
C1128       C  0.94387197  0.35968264  0.86696946    -0.09300
C1129       C  0.95699996  0.37873356  0.87042410    -0.25900
S1130       S  0.04336818  0.39428093  0.87944524    -0.03100
C1131       C  0.05840563  0.36946511  0.87769918    -0.16500
C1132       C  0.04524603  0.35040501  0.87443372    -0.14500
H1133       H  0.00758646  0.32313927  0.86785468     0.20800
H1134       H  0.99467844  0.40601566  0.87701362     0.16900
H1135       H  0.95048357  0.39571138  0.87208093     0.19400
H1136       H  0.05174517  0.33342507  0.87275927     0.12700
C1137       C  0.76781192  0.39025421  0.11438779     0.16600
C1138       C  0.74639534  0.39970430  0.11141435    -0.32400
C1139       C  0.72790833  0.38782314  0.12003310     0.21000
C1140       C  0.73059492  0.36769908  0.13166133     0.03200
C1141       C  0.75205343  0.35807972  0.13442090    -0.22200
C1142       C  0.77053480  0.36972074  0.12525938     0.12400
S1143       S  0.79226769  0.40219817  0.10517790    -0.05800
C1144       C  0.80634647  0.37900399  0.11545393    -0.09300
C1145       C  0.79268414  0.36301030  0.12569769    -0.25900
S1146       S  0.70589525  0.35611239  0.14098529    -0.03100
C1147       C  0.69194128  0.37824612  0.12839409    -0.16500
C1148       C  0.70572616  0.39381502  0.11787308    -0.14500
H1149       H  0.74422028  0.41548220  0.10258195     0.20800
H1150       H  0.75420817  0.34220396  0.14306141     0.16900
H1151       H  0.79867211  0.34760003  0.13337402     0.19400
H1152       H  0.69978785  0.40855718  0.10892589     0.12700
C1153       C  0.98036893  0.36160529  0.11956236     0.16600
C1154       C  0.00188428  0.35231395  0.12275679    -0.32400
C1155       C  0.02008774  0.36725535  0.12511389     0.21000
C1156       C  0.01703480  0.39042206  0.12432818     0.03200
C1157       C  0.99552338  0.39971449  0.12113161    -0.22200
C1158       C  0.97732875  0.38477119  0.11874933     0.12400
S1159       S  0.95605393  0.34638068  0.11678590    -0.05800
C1160       C  0.94158854  0.37149029  0.11455846    -0.09300
C1161       C  0.95513512  0.39054346  0.11578865    -0.25900
S1162       S  0.04133486  0.40564946  0.12709956    -0.03100
C1163       C  0.05583234  0.38054056  0.12923300    -0.16500
C1164       C  0.04230108  0.36148217  0.12800508    -0.14500
H1165       H  0.00432963  0.33423069  0.12338572     0.20800
H1166       H  0.99307796  0.41779889  0.12049620     0.16900
H1167       H  0.94901447  0.40773413  0.11504024     0.19400
H1168       H  0.04844082  0.34429792  0.12871670     0.12700
C1169       C  0.87468362  0.34868763  0.97054171     0.16600
C1170       C  0.87684168  0.34074770  0.99274644    -0.32400
C1171       C  0.87368780  0.35631341  0.01034059     0.21000
C1172       C  0.86853827  0.37871437  0.00600904     0.03200
C1173       C  0.86619208  0.38656816  0.98389942    -0.22200
C1174       C  0.86949957  0.37109888  0.96637513     0.12400
S1175       S  0.87847419  0.33285464  0.94667921    -0.05800
C1176       C  0.87325578  0.35682394  0.93106266    -0.09300
C1177       C  0.86864582  0.37583259  0.94384745    -0.25900
S1178       S  0.86600029  0.39513837  0.02946342    -0.03100
C1179       C  0.87188045  0.37161196  0.04541912    -0.16500
C1180       C  0.87548349  0.35208702  0.03302213    -0.14500
H1181       H  0.88104619  0.32331033  0.99615225     0.20800
H1182       H  0.86227987  0.40407593  0.98048768     0.16900
H1183       H  0.86507489  0.39238457  0.93699895     0.19400
H1184       H  0.87950660  0.33578505  0.04020089     0.12700
C1185       C  0.35974002  0.73945238  0.12954643     0.16600
C1186       C  0.35260085  0.76144366  0.12477600    -0.32400
C1187       C  0.36632145  0.77922271  0.13211406     0.21000
C1188       C  0.38650102  0.77532672  0.14329581     0.03200
C1189       C  0.39345910  0.75333331  0.14842313    -0.22200
C1190       C  0.37948621  0.73555855  0.14149396     0.12400
S1191       S  0.34568530  0.71559826  0.12168933    -0.05800
C1192       C  0.36624712  0.70031929  0.13526121    -0.09300
C1193       C  0.38313821  0.71304867  0.14512733    -0.25900
S1194       S  0.40116414  0.79920221  0.14990788    -0.03100
C1195       C  0.37952995  0.81455316  0.13807070    -0.16500
C1196       C  0.36209619  0.80173492  0.12931398    -0.14500
H1197       H  0.33705394  0.76455839  0.11574844     0.20800
H1198       H  0.40903002  0.75021888  0.15740739     0.16900
H1199       H  0.39745773  0.70615867  0.15411629     0.19400
H1200       H  0.34728998  0.80853039  0.12107431     0.12700
C1201       C  0.40178355  0.76877507  0.89038935     0.16600
C1202       C  0.40698342  0.74649966  0.89659332    -0.32400
C1203       C  0.39462533  0.72904212  0.88634551     0.21000
C1204       C  0.37827038  0.73356058  0.87023356     0.03200
C1205       C  0.37281620  0.75576839  0.86436516    -0.22200
C1206       C  0.38474263  0.77318196  0.87498695     0.12400
S1207       S  0.41466619  0.79247007  0.90076288    -0.05800
C1208       C  0.39628023  0.80833524  0.88478250    -0.09300
C1209       C  0.38133750  0.79580872  0.87193494    -0.25900
S1210       S  0.36592012  0.71017315  0.85888694    -0.03100
C1211       C  0.38235844  0.69408144  0.87655312    -0.16500
C1212       C  0.39680028  0.70631304  0.89032074    -0.14500
H1213       H  0.41997152  0.74294564  0.90890593     0.20800
H1214       H  0.35976853  0.75932739  0.85210777     0.16900
H1215       H  0.36864149  0.80293330  0.86090854     0.19400
H1216       H  0.40850595  0.69894435  0.90223346     0.12700
C1217       C  0.40153784  0.87904982  0.99263684     0.16600
C1218       C  0.41006145  0.88072276  0.01462132    -0.32400
C1219       C  0.39460859  0.87977802  0.03249015     0.21000
C1220       C  0.37166599  0.87733874  0.02866419     0.03200
C1221       C  0.36313256  0.87566818  0.00666645    -0.22200
C1222       C  0.37860271  0.87657942  0.98878669     0.12400
S1223       S  0.41752891  0.87983929  0.96872503    -0.05800
C1224       C  0.39306931  0.87685463  0.95329650    -0.09300
C1225       C  0.37362795  0.87531115  0.96622384    -0.25900
S1226       S  0.35572173  0.87664628  0.05262655    -0.03100
C1227       C  0.38024227  0.87959390  0.06798570    -0.16500
C1228       C  0.39964199  0.88104741  0.05502256    -0.14500
H1229       H  0.42796332  0.88266585  0.01766544     0.20800
H1230       H  0.34522715  0.87375435  0.00362261     0.16900
H1231       H  0.35675882  0.87342363  0.95948099     0.19400
H1232       H  0.41652282  0.88299434  0.06171753     0.12700
C1233       C  0.38451238  0.26945839  0.87540881     0.16600
C1234       C  0.39220997  0.24784031  0.88106606    -0.32400
C1235       C  0.37973178  0.22933980  0.87323799     0.21000
C1236       C  0.36025496  0.23219728  0.86060633     0.03200
C1237       C  0.35283996  0.25383018  0.85448559    -0.22200
C1238       C  0.36552477  0.27234573  0.86204092     0.12400
S1239       S  0.39680481  0.29402439  0.88403301    -0.05800
C1240       C  0.37659067  0.30832489  0.86891021    -0.09300
C1241       C  0.36109519  0.29469817  0.85793692    -0.25900
S1242       S  0.34690501  0.20756124  0.85379550    -0.03100
C1243       C  0.36811178  0.19327398  0.86762274    -0.16500
C1244       C  0.38449741  0.20703710  0.87703883    -0.14500
H1245       H  0.40715661  0.24554613  0.89126904     0.20800
H1246       H  0.33779386  0.25613007  0.84443169     0.16900
H1247       H  0.34711220  0.30084358  0.84793980     0.19400
H1248       H  0.39893592  0.20104026  0.88646346     0.12700
C1249       C  0.39707458  0.98356882  0.88135900     0.16600
C1250       C  0.40467849  0.00582678  0.87897846    -0.32400
C1251       C  0.38841510  0.02297683  0.87795344     0.21000
C1252       C  0.36556565  0.01822654  0.87935182     0.03200
C1253       C  0.35794774  0.99594806  0.88182412    -0.22200
C1254       C  0.37423204  0.97876420  0.88271704     0.12400
S1255       S  0.41413956  0.96038909  0.88236040    -0.05800
C1256       C  0.39027923  0.94392199  0.88442541    -0.09300
C1257       C  0.37022063  0.95602525  0.88453062    -0.25900
S1258       S  0.34858229  0.04147386  0.87771377    -0.03100
C1259       C  0.37253326  0.05778558  0.87514127    -0.16500
C1260       C  0.39251392  0.04561357  0.87553219    -0.14500
H1261       H  0.42251356  0.00960233  0.87781529     0.20800
H1262       H  0.34010756  0.99215980  0.88284282     0.16900
H1263       H  0.35357843  0.94856977  0.88556147     0.19400
H1264       H  0.40918965  0.05294660  0.87420288     0.12700
C1265       C  0.36065626  0.23875517  0.11315214     0.16600
C1266       C  0.35359483  0.26051231  0.10702752    -0.32400
C1267       C  0.36578907  0.27888665  0.11565787     0.21000
C1268       C  0.38399901  0.27572263  0.13000636     0.03200
C1269       C  0.39140092  0.25397030  0.13565190    -0.22200
C1270       C  0.37938914  0.23560307  0.12680065     0.12400
S1271       S  0.34761251  0.21430906  0.10523728    -0.05800
C1272       C  0.36795131  0.19965208  0.11997380    -0.09300
C1273       C  0.38385823  0.21317723  0.13050809    -0.25900
S1274       S  0.39555355  0.30014029  0.14001100    -0.03100
C1275       C  0.37606147  0.31477518  0.12424410    -0.16500
C1276       C  0.36139400  0.30134094  0.11195699    -0.14500
H1277       H  0.33909453  0.26300907  0.09623515     0.20800
H1278       H  0.40572060  0.25147659  0.14668725     0.16900
H1279       H  0.39769298  0.20694145  0.14065896     0.19400
H1280       H  0.34786677  0.30766911  0.10145755     0.12700
C1281       C  0.38957760  0.98890335  0.12921734     0.16600
C1282       C  0.39823473  0.01078342  0.12700789    -0.32400
C1283       C  0.38275917  0.02864690  0.12599065     0.21000
C1284       C  0.35970093  0.02491271  0.12713034     0.03200
C1285       C  0.35105193  0.00304916  0.12938516    -0.22200
C1286       C  0.36651671  0.98519679  0.13037373     0.12400
S1287       S  0.40549650  0.96494628  0.13055139    -0.05800
C1288       C  0.38080435  0.94976868  0.13262004    -0.09300
C1289       C  0.36137593  0.96277409  0.13234398    -0.25900
S1290       S  0.34373183  0.04880695  0.12565981    -0.03100
C1291       C  0.36837470  0.06405167  0.12354459    -0.16500
C1292       C  0.38785071  0.05109643  0.12394525    -0.14500
H1293       H  0.41622458  0.01374965  0.12609122     0.20800
H1294       H  0.33306179  0.00008000  0.13029116     0.16900
H1295       H  0.34438432  0.95616976  0.13338964     0.19400
H1296       H  0.40482358  0.05775233  0.12293951     0.12700
C1297       C  0.35684839  0.12816996  0.97756594     0.16600
C1298       C  0.34697027  0.12869801  0.99899933    -0.32400
C1299       C  0.36138314  0.12918222  0.01771127     0.21000
C1300       C  0.38463755  0.12903308  0.01526194     0.03200
C1301       C  0.39454951  0.12837818  0.99377939    -0.22200
C1302       C  0.38009747  0.12801741  0.97502058     0.12400
S1303       S  0.34217425  0.12787199  0.95284466    -0.05800
C1304       C  0.36759340  0.12762617  0.93879601    -0.09300
C1305       C  0.38639220  0.12766801  0.95274969    -0.25900
S1306       S  0.39910142  0.12989387  0.04018244    -0.03100
C1307       C  0.37351216  0.13049721  0.05400095    -0.16500
C1308       C  0.35490781  0.12998306  0.03986082    -0.14500
H1309       H  0.32881569  0.12886670  0.00100210     0.20800
H1310       H  0.41270174  0.12830141  0.99177364     0.16900
H1311       H  0.40369965  0.12750072  0.94692393     0.19400
H1312       H  0.33753153  0.13023054  0.04548423     0.12700
C1313       C  0.87865625  0.01576695  0.60765943     0.16600
C1314       C  0.88004032  0.99360803  0.59946340    -0.32400
C1315       C  0.87952680  0.97598422  0.61527011     0.21000
C1316       C  0.87767332  0.98025218  0.63818959     0.03200
C1317       C  0.87629618  0.00237189  0.64636531    -0.22200
C1318       C  0.87686381  0.01996439  0.63059337     0.12400
S1319       S  0.87914659  0.03951654  0.59134125    -0.05800
C1320       C  0.87709832  0.05525636  0.61570918    -0.09300
C1321       C  0.87594164  0.04256410  0.63531256    -0.25900
S1322       S  0.87716763  0.95666614  0.65464534    -0.03100
C1323       C  0.87943978  0.94076071  0.63043306    -0.16500
C1324       C  0.88059179  0.95331036  0.61069974    -0.14500
H1325       H  0.88147679  0.99025450  0.58156342     0.20800
H1326       H  0.87487208  0.00572776  0.66426788     0.16900
H1327       H  0.87461254  0.04950510  0.65215917     0.19400
H1328       H  0.88198082  0.94623165  0.59391838     0.12700
C1329       C  0.02068186  0.12115347  0.63312692     0.16600
C1330       C  0.99904407  0.12150719  0.64277309    -0.32400
C1331       C  0.98043555  0.12153568  0.62810298     0.21000
C1332       C  0.98331910  0.12099091  0.60489989     0.03200
C1333       C  0.00489975  0.12043487  0.59528900    -0.22200
C1334       C  0.02346274  0.12065360  0.60991474     0.12400
S1335       S  0.04542058  0.12191713  0.64789011    -0.05800
C1336       C  0.05965220  0.12176987  0.62250920    -0.09300
C1337       C  0.04575507  0.12092934  0.60371646    -0.25900
S1338       S  0.95881393  0.12148578  0.58989712    -0.03100
C1339       C  0.94433806  0.12256559  0.61507508    -0.16500
C1340       C  0.95803220  0.12238820  0.63408622    -0.14500
H1341       H  0.99682313  0.12205399  0.66089363     0.20800
H1342       H  0.00712372  0.12016148  0.57716769     0.16900
H1343       H  0.05162699  0.12086326  0.58642806     0.19400
H1344       H  0.95195181  0.12294773  0.65130012     0.12700
C1345       C  0.02357029  0.87175239  0.62494514     0.16600
C1346       C  0.00231357  0.87101318  0.61475636    -0.32400
C1347       C  0.98339008  0.87184999  0.62883582     0.21000
C1348       C  0.98542307  0.87326404  0.65208664     0.03200
C1349       C  0.00675919  0.87396378  0.66232994    -0.22200
C1350       C  0.02575391  0.87320748  0.64818820     0.12400
S1351       S  0.04847451  0.87125015  0.61062641    -0.05800
C1352       C  0.06214090  0.87308924  0.63617436    -0.09300
C1353       C  0.04793211  0.87394680  0.65476750    -0.25900
S1354       S  0.96019483  0.87417803  0.66605256    -0.03100
C1355       C  0.94688502  0.87273024  0.64022400    -0.16500
C1356       C  0.96139077  0.87154430  0.62195500    -0.14500
H1357       H  0.00059397  0.86994888  0.59660457     0.20800
H1358       H  0.00847750  0.87514672  0.68047295     0.16900
H1359       H  0.05351599  0.87520814  0.67211256     0.19400
H1360       H  0.95611839  0.87055046  0.60449355     0.12700
C1361       C  0.12657616  0.98317893  0.64403057     0.16600
C1362       C  0.12655600  0.00550616  0.65176114    -0.32400
C1363       C  0.12798311  0.02272674  0.63561128     0.21000
C1364       C  0.12916627  0.01800760  0.61274339     0.03200
C1365       C  0.12911827  0.99565388  0.60499826    -0.22200
C1366       C  0.12787964  0.97840679  0.62117549     0.12400
S1367       S  0.12556889  0.95990730  0.66096856    -0.05800
C1368       C  0.12715538  0.94350102  0.63702713    -0.09300
C1369       C  0.12815088  0.95565269  0.61704836    -0.25900
S1370       S  0.13059911  0.04139499  0.59591420    -0.03100
C1371       C  0.12967781  0.05769234  0.61997966    -0.16500
C1372       C  0.12834798  0.04542335  0.63985736    -0.14500
H1373       H  0.12563688  0.00929365  0.66960766     0.20800
H1374       H  0.13014398  0.99186453  0.58715896     0.16900
H1375       H  0.12932672  0.94823640  0.60039697     0.19400
H1376       H  0.12743776  0.05273939  0.65657097     0.12700
C1377       C  0.62531105  0.90047252  0.26559988     0.16600
C1378       C  0.62994684  0.90722682  0.24341910    -0.32400
C1379       C  0.62168967  0.89367971  0.22585499     0.21000
C1380       C  0.60885372  0.87459275  0.23011648     0.03200
C1381       C  0.60449871  0.86765941  0.25229636    -0.22200
C1382       C  0.61325425  0.88089574  0.26985907     0.12400
S1383       S  0.63409380  0.91438763  0.28928961    -0.05800
C1384       C  0.62209754  0.89317330  0.30505813    -0.09300
C1385       C  0.61155710  0.87650278  0.29247837    -0.25900
S1386       S  0.59975705  0.86088260  0.20643402    -0.03100
C1387       C  0.61403799  0.88065292  0.19073435    -0.16500
C1388       C  0.62499785  0.89705141  0.20323054    -0.14500
H1389       H  0.63973054  0.92221488  0.24000975     0.20800
H1390       H  0.59491474  0.85254038  0.25570818     0.16900
H1391       H  0.60319673  0.86190198  0.29952903     0.19400
H1392       H  0.63468221  0.91076828  0.19610609     0.12700
C1393       C  0.63372182  0.86355112  0.72901904     0.16600
C1394       C  0.63889748  0.85470960  0.75033243    -0.32400
C1395       C  0.63189141  0.86696357  0.76931693     0.21000
C1396       C  0.61982149  0.88689669  0.76720689     0.03200
C1397       C  0.61499200  0.89594988  0.74588535    -0.22200
C1398       C  0.62240070  0.88390558  0.72689790     0.12400
S1399       S  0.64062429  0.85116400  0.70393843    -0.05800
C1400       C  0.62869811  0.87393869  0.69042463    -0.09300
C1401       C  0.61969986  0.89009255  0.70476626    -0.25900
S1402       S  0.61204861  0.89871167  0.79232050    -0.03100
C1403       C  0.62582028  0.87694951  0.80572357    -0.16500
C1404       C  0.63567876  0.86134053  0.79143838    -0.14500
H1405       H  0.64803221  0.83901537  0.75204102     0.20800
H1406       H  0.60591177  0.91167431  0.74417481     0.16900
H1407       H  0.61153266  0.90546371  0.69927913     0.19400
H1408       H  0.64487628  0.84657665  0.79696824     0.12700
C1409       C  0.73598024  0.88709322  0.63499295     0.16600
C1410       C  0.75734134  0.89196519  0.64380171    -0.32400
C1411       C  0.77607481  0.88243348  0.63300543     0.21000
C1412       C  0.77375996  0.86907953  0.61394318     0.03200
C1413       C  0.75233347  0.86388817  0.60532885    -0.22200
C1414       C  0.73352904  0.87299547  0.61648115     0.12400
S1415       S  0.71122439  0.89717046  0.64564457    -0.05800
C1416       C  0.69736516  0.88164278  0.62545033    -0.09300
C1417       C  0.71128873  0.86952145  0.61110978    -0.25900
S1418       S  0.79875244  0.85986204  0.60290351    -0.03100
C1419       C  0.81231034  0.87353917  0.62466409    -0.16500
C1420       C  0.79813192  0.88481829  0.63939517    -0.14500
H1421       H  0.75926451  0.90260370  0.65845662     0.20800
H1422       H  0.75040757  0.85318026  0.59072455     0.16900
H1423       H  0.70544923  0.85897144  0.59743030     0.19400
H1424       H  0.80369819  0.89441322  0.65386860     0.12700
C1425       C  0.63154682  0.89945743  0.51710240     0.16600
C1426       C  0.63059311  0.91008054  0.49598645    -0.32400
C1427       C  0.63167070  0.89636755  0.47673046     0.21000
C1428       C  0.63385038  0.87314552  0.47844187     0.03200
C1429       C  0.63496052  0.86255020  0.49953278    -0.22200
C1430       C  0.63361294  0.87622482  0.51876590     0.12400
S1431       S  0.62985041  0.91299325  0.54246392    -0.05800
C1432       C  0.63172554  0.88705643  0.55545505    -0.09300
C1433       C  0.63372443  0.86900174  0.54072483    -0.25900
S1434       S  0.63433127  0.85940620  0.45318712    -0.03100
C1435       C  0.63135596  0.88517510  0.44008699    -0.16500
C1436       C  0.63030394  0.90340415  0.45471891    -0.14500
H1437       H  0.62877729  0.92819865  0.49463057     0.20800
H1438       H  0.63647295  0.84440323  0.50088996     0.16900
H1439       H  0.63504330  0.85150829  0.54580084     0.19400
H1440       H  0.62831740  0.92080645  0.44955516     0.12700
C1441       C  0.27302610  0.86190034  0.63158500     0.16600
C1442       C  0.25124077  0.85501409  0.62559531    -0.32400
C1443       C  0.23306554  0.86724931  0.63444281     0.21000
C1444       C  0.23635604  0.88528391  0.64897338     0.03200
C1445       C  0.25820325  0.89250302  0.65456468    -0.22200
C1446       C  0.27643373  0.88048706  0.64537523     0.12400
S1447       S  0.29718502  0.84887190  0.62303395    -0.05800
C1448       C  0.31214414  0.86901368  0.63764676    -0.09300
C1449       C  0.29894537  0.88488196  0.64865415    -0.25900
S1450       S  0.21194807  0.89708161  0.65883093    -0.03100
C1451       C  0.19730842  0.87794706  0.64262731    -0.16500
C1452       C  0.21068060  0.86319666  0.63045229    -0.14500
H1453       H  0.24858032  0.84073145  0.61461722     0.20800
H1454       H  0.26086162  0.90672851  0.66561753     0.16900
H1455       H  0.30545301  0.89862622  0.65871361     0.19400
H1456       H  0.20432834  0.84999881  0.61958967     0.12700
C1457       C  0.38140626  0.85724715  0.74267132     0.16600
C1458       C  0.37704294  0.85012110  0.76480557    -0.32400
C1459       C  0.38576777  0.86321529  0.78249969     0.21000
C1460       C  0.39877888  0.88221102  0.77836990     0.03200
C1461       C  0.40285291  0.88951820  0.75625425    -0.22200
C1462       C  0.39364527  0.87674714  0.73858378     0.12400
S1463       S  0.37219367  0.84385007  0.71884468    -0.05800
C1464       C  0.38427807  0.86518641  0.70327340    -0.09300
C1465       C  0.39513970  0.88151420  0.71601404    -0.25900
S1466       S  0.40852227  0.89530940  0.80213417    -0.03100
C1467       C  0.39428781  0.87542936  0.81775250    -0.16500
C1468       C  0.38285247  0.85943332  0.80513505    -0.14500
H1469       H  0.36714696  0.83516838  0.76808850     0.20800
H1470       H  0.41260779  0.90456154  0.75297326     0.16900
H1471       H  0.40368206  0.89607956  0.70910917     0.19400
H1472       H  0.37314720  0.84568025  0.81217572     0.12700
C1473       C  0.52276741  0.88835623  0.62456258     0.16600
C1474       C  0.50095824  0.89713100  0.62686271    -0.32400
C1475       C  0.48300057  0.88180760  0.62775641     0.21000
C1476       C  0.48654509  0.85874408  0.62625125     0.03200
C1477       C  0.50838582  0.84995098  0.62379091    -0.22200
C1478       C  0.52639695  0.86530046  0.62307558     0.12400
S1479       S  0.54674468  0.90419244  0.62402846    -0.05800
C1480       C  0.56197383  0.87953229  0.62197487    -0.09300
C1481       C  0.54891648  0.86011054  0.62149016    -0.25900
S1482       S  0.46246788  0.84301933  0.62791894    -0.03100
C1483       C  0.44748515  0.86779891  0.63069679    -0.16500
C1484       C  0.46064684  0.88710911  0.63029382    -0.14500
H1485       H  0.49813343  0.91512680  0.62816751     0.20800
H1486       H  0.51123193  0.83194283  0.62274076     0.16900
H1487       H  0.55554884  0.84312309  0.62049927     0.19400
H1488       H  0.45420969  0.90413615  0.63177775     0.12700
C1489       C  0.38830014  0.86599178  0.27878595     0.16600
C1490       C  0.39589947  0.86058801  0.25707586    -0.32400
C1491       C  0.38709967  0.87300730  0.23898815     0.21000
C1492       C  0.37118956  0.88983786  0.24232094     0.03200
C1493       C  0.36404350  0.89565031  0.26409878    -0.22200
C1494       C  0.37307065  0.88341839  0.28222164     0.12400
S1495       S  0.39628218  0.85232182  0.30279882    -0.05800
C1496       C  0.37941447  0.87065842  0.31769178    -0.09300
C1497       C  0.36815827  0.88641993  0.30462425    -0.25900
S1498       S  0.36123054  0.90167012  0.21803174    -0.03100
C1499       C  0.37914182  0.88419110  0.20333580    -0.16500
C1500       C  0.39204776  0.86997026  0.21661465    -0.14500
H1501       H  0.40790747  0.84713699  0.25438220     0.20800
H1502       H  0.35179038  0.90888239  0.26676849     0.16900
H1503       H  0.35679006  0.89911819  0.31113455     0.19400
H1504       H  0.40376481  0.85754782  0.21018394     0.12700
C1505       C  0.51963632  0.89603482  0.37850650     0.16600
C1506       C  0.49739083  0.90396320  0.38004334    -0.32400
C1507       C  0.48003481  0.88788672  0.38081217     0.21000
C1508       C  0.48465275  0.86497492  0.37993113     0.03200
C1509       C  0.50683685  0.85707176  0.37825656    -0.22200
C1510       C  0.52415937  0.87310928  0.37764686     0.12400
S1511       S  0.54312123  0.91269834  0.37775501    -0.05800
C1512       C  0.55917192  0.88849436  0.37632134    -0.09300
C1513       C  0.54678628  0.86867638  0.37637410    -0.25900
S1514       S  0.46142602  0.84813164  0.38126353    -0.03100
C1515       C  0.44518885  0.87215267  0.38315658    -0.16500
C1516       C  0.45734217  0.89214028  0.38261368    -0.14500
H1517       H  0.49378704  0.92184825  0.38077428     0.20800
H1518       H  0.51044807  0.83918332  0.37762133     0.16900
H1519       H  0.55395433  0.85189706  0.37558344     0.19400
H1520       H  0.44999420  0.90883441  0.38349654     0.12700
C1521       C  0.37405118  0.88294566  0.52919501     0.16600
C1522       C  0.37247365  0.89240278  0.50756545    -0.32400
C1523       C  0.37522095  0.87793351  0.48902631     0.21000
C1524       C  0.37923888  0.85507446  0.49188570     0.03200
C1525       C  0.38072219  0.84562763  0.51347648    -0.22200
C1526       C  0.37804509  0.86007650  0.53198435     0.12400
S1527       S  0.37179173  0.89761715  0.55390743    -0.05800
C1528       C  0.37627586  0.87263558  0.56810456    -0.09300
C1529       C  0.37922871  0.85405406  0.55424050    -0.25900
S1530       S  0.38209618  0.84034410  0.46732910    -0.03100
C1531       C  0.37786442  0.86523071  0.45296427    -0.16500
C1532       C  0.37446453  0.88388367  0.46669052    -0.14500
H1533       H  0.36938949  0.91025654  0.50528760     0.20800
H1534       H  0.38392539  0.82779470  0.51575511     0.16900
H1535       H  0.38240126  0.83706080  0.56013144     0.19400
H1536       H  0.37149661  0.90086236  0.46065170     0.12700
C1537       C  0.88837954  0.35606315  0.71863209     0.16600
C1538       C  0.89452526  0.34711751  0.73972586    -0.32400
C1539       C  0.88505718  0.35702482  0.75909152     0.21000
C1540       C  0.87053560  0.37529541  0.75747073     0.03200
C1541       C  0.86404123  0.38387630  0.73644727    -0.22200
C1542       C  0.87310531  0.37371273  0.71714337     0.12400
S1543       S  0.89817927  0.34687752  0.69305417    -0.05800
C1544       C  0.88091983  0.36654643  0.68036031    -0.09300
C1545       C  0.86850652  0.37954581  0.69525322    -0.25900
S1546       S  0.86170719  0.38576372  0.78274957    -0.03100
C1547       C  0.87711125  0.36490350  0.79578240    -0.16500
C1548       C  0.88863872  0.35072133  0.78114420    -0.14500
H1549       H  0.90614977  0.33311701  0.74098296     0.20800
H1550       H  0.85243547  0.39789554  0.73519268     0.16900
H1551       H  0.85690500  0.39273978  0.69029571     0.19400
H1552       H  0.89929129  0.33685250  0.78636732     0.12700
C1553       C  0.86563067  0.22958084  0.62266262     0.16600
C1554       C  0.85900223  0.25113124  0.62977383    -0.32400
C1555       C  0.86685729  0.26967148  0.61737376     0.21000
C1556       C  0.88088986  0.26691323  0.59885846     0.03200
C1557       C  0.88696873  0.24532654  0.59135292    -0.22200
C1558       C  0.87894254  0.22676579  0.60363412     0.12400
S1559       S  0.85886517  0.20503548  0.63609265    -0.05800
C1560       C  0.87363221  0.19077863  0.61553450    -0.09300
C1561       C  0.88329714  0.20446541  0.59924419    -0.25900
S1562       S  0.89018460  0.29160102  0.58728420    -0.03100
C1563       C  0.87454837  0.30571709  0.60725162    -0.16500
C1564       C  0.86280926  0.29195357  0.62201239    -0.14500
H1565       H  0.84851371  0.25336615  0.64453462     0.20800
H1566       H  0.89780056  0.24311018  0.57684078     0.16900
H1567       H  0.89331428  0.19843847  0.58522648     0.19400
H1568       H  0.85258699  0.29795527  0.63589544     0.12700
C1569       C  0.88013182  0.38617192  0.21916417     0.16600
C1570       C  0.88671280  0.39289338  0.24077962    -0.32400
C1571       C  0.87486140  0.38389244  0.25909401     0.21000
C1572       C  0.85690610  0.36920201  0.25612215     0.03200
C1573       C  0.85052818  0.36216005  0.23445445    -0.22200
C1574       C  0.86274214  0.37081453  0.21611143     0.12400
S1575       S  0.89220248  0.39558286  0.19483057    -0.05800
C1576       C  0.87411972  0.37814274  0.18041740    -0.09300
C1577       C  0.85943206  0.36585337  0.19379215    -0.25900
S1578       S  0.84444577  0.36070779  0.28070380    -0.03100
C1579       C  0.86416522  0.37656365  0.29499495    -0.16500
C1580       C  0.87923514  0.38798607  0.28134025    -0.14500
H1581       H  0.90050180  0.40456023  0.24322134     0.20800
H1582       H  0.83678843  0.35043059  0.23201432     0.16900
H1583       H  0.84678541  0.35431222  0.18747851     0.19400
H1584       H  0.89271312  0.39868632  0.28739974     0.12700
C1585       C  0.88527859  0.38171290  0.46885038     0.16600
C1586       C  0.89530376  0.38268137  0.49025846    -0.32400
C1587       C  0.88110403  0.38127811  0.50915083     0.21000
C1588       C  0.85792304  0.37926289  0.50686575     0.03200
C1589       C  0.84787952  0.37848439  0.48545467    -0.22200
C1590       C  0.86210256  0.37963456  0.46656400     0.12400
S1591       S  0.89961004  0.38237634  0.44384513    -0.05800
C1592       C  0.87411677  0.37966876  0.43012233    -0.09300
C1593       C  0.85559593  0.37851475  0.44438992    -0.25900
S1594       S  0.84372392  0.37719980  0.53187752    -0.03100
C1595       C  0.86931083  0.37884907  0.54560755    -0.16500
C1596       C  0.88772593  0.38110972  0.53132355    -0.14500
H1597       H  0.91341768  0.38411993  0.49211146     0.20800
H1598       H  0.82979750  0.37671481  0.48359862     0.16900
H1599       H  0.83828360  0.37675543  0.43884120     0.19400
H1600       H  0.90510175  0.38219466  0.53685368     0.12700
C1601       C  0.89370466  0.73011550  0.61779294     0.16600
C1602       C  0.89928907  0.75219960  0.61159625    -0.32400
C1603       C  0.88921642  0.76985610  0.62364471     0.21000
C1604       C  0.87467179  0.76579407  0.64149913     0.03200
C1605       C  0.86882191  0.74365563  0.64751952    -0.22200
C1606       C  0.87844978  0.72596450  0.63503681     0.12400
S1607       S  0.90429645  0.70645254  0.60529364    -0.05800
C1608       C  0.88737273  0.69078615  0.62287161    -0.09300
C1609       C  0.87450151  0.70332925  0.63783222    -0.25900
S1610       S  0.86482986  0.78969422  0.65433985    -0.03100
C1611       C  0.87988056  0.80521223  0.63490956    -0.16500
C1612       C  0.89205880  0.79240923  0.61963559    -0.14500
H1613       H  0.91086017  0.75547980  0.59788509     0.20800
H1614       H  0.85717851  0.74037782  0.66117074     0.16900
H1615       H  0.86319004  0.69623858  0.65027661     0.19400
H1616       H  0.90252582  0.79926877  0.60635220     0.12700
C1617       C  0.89655823  0.62835320  0.72860016     0.16600
C1618       C  0.90378134  0.63328712  0.75057914    -0.32400
C1619       C  0.89034060  0.62565843  0.76850933     0.21000
C1620       C  0.87080246  0.61334494  0.76474766     0.03200
C1621       C  0.86333516  0.60886288  0.74279465    -0.22200
C1622       C  0.87658175  0.61677069  0.72489074     0.12400
S1623       S  0.91067824  0.63556009  0.70452150    -0.05800
C1624       C  0.88911893  0.62333299  0.68936737    -0.09300
C1625       C  0.87208315  0.61410102  0.70241047    -0.25900
S1626       S  0.85753113  0.60447956  0.78871000    -0.03100
C1627       C  0.87813928  0.61806606  0.80391971    -0.16500
C1628       C  0.89445072  0.62873664  0.79105625    -0.14500
H1629       H  0.91920415  0.64253031  0.75356865     0.20800
H1630       H  0.84797713  0.59951144  0.73980247     0.16900
H1631       H  0.85732646  0.60566168  0.69578174     0.19400
H1632       H  0.90873251  0.63782753  0.79786023     0.12700
C1633       C  0.89645361  0.51603624  0.62141289     0.16600
C1634       C  0.90516748  0.49406170  0.62101566    -0.32400
C1635       C  0.88973885  0.47614435  0.62043395     0.21000
C1636       C  0.86665863  0.47992886  0.62040225     0.03200
C1637       C  0.85794591  0.50189300  0.62087098    -0.22200
C1638       C  0.87337270  0.51980378  0.62131096     0.12400
S1639       S  0.91234464  0.54003800  0.62174667    -0.05800
C1640       C  0.88763272  0.55534273  0.62166644    -0.09300
C1641       C  0.86820025  0.54232983  0.62147168    -0.25900
S1642       S  0.85075076  0.45598195  0.61934767    -0.03100
C1643       C  0.87544428  0.44065036  0.61878352    -0.16500
C1644       C  0.89489650  0.45361552  0.61952358    -0.14500
H1645       H  0.92318821  0.49106609  0.62097436     0.20800
H1646       H  0.83992594  0.50489424  0.62071703     0.16900
H1647       H  0.85119020  0.54899104  0.62134090     0.19400
H1648       H  0.91189443  0.44693489  0.61918673     0.12700
C1649       C  0.87545492  0.61850320  0.22785902     0.16600
C1650       C  0.88246484  0.61151664  0.24932595    -0.32400
C1651       C  0.87323869  0.62263794  0.26804290     0.21000
C1652       C  0.85754279  0.63980542  0.26553042     0.03200
C1653       C  0.85109624  0.64729756  0.24403086    -0.22200
C1654       C  0.86048841  0.63630332  0.22529285     0.12400
S1655       S  0.88368354  0.60629007  0.20312872    -0.05800
C1656       C  0.86726287  0.62572789  0.18914899    -0.09300
C1657       C  0.85604479  0.64081677  0.20302718    -0.25900
S1658       S  0.84706078  0.64994723  0.29038964    -0.03100
C1659       C  0.86447417  0.63129499  0.30424685    -0.16500
C1660       C  0.87760454  0.61797312  0.29026649    -0.14500
H1661       H  0.89429604  0.59776962  0.25135865     0.20800
H1662       H  0.83901554  0.66082379  0.24200187     0.16900
H1663       H  0.84488289  0.65401301  0.19714684     0.19400
H1664       H  0.88927211  0.60518439  0.29607464     0.12700
C1665       C  0.87937877  0.52144784  0.36818023     0.16600
C1666       C  0.88923015  0.50002515  0.36765101    -0.32400
C1667       C  0.87485688  0.48143182  0.36547256     0.21000
C1668       C  0.85165783  0.48394774  0.36397731     0.03200
C1669       C  0.84176869  0.50544406  0.36450626    -0.22200
C1670       C  0.85618913  0.52410629  0.36662939     0.12400
S1671       S  0.89405376  0.54602011  0.37050138    -0.05800
C1672       C  0.86872365  0.56018216  0.36928986    -0.09300
C1673       C  0.84993642  0.54637864  0.36731649    -0.25900
S1674       S  0.83724442  0.45907046  0.36172403    -0.03100
C1675       C  0.86280000  0.44523352  0.36278326    -0.16500
C1676       C  0.88133707  0.45932268  0.36471041    -0.14500
H1677       H  0.90733756  0.49793853  0.36885284     0.20800
H1678       H  0.82366230  0.50752961  0.36331704     0.16900
H1679       H  0.83269362  0.55231297  0.36627505     0.19400
H1680       H  0.89867683  0.45367105  0.36576882     0.12700
C1681       C  0.89251217  0.62249994  0.51423809     0.16600
C1682       C  0.90044033  0.62300686  0.49196908    -0.32400
C1683       C  0.88439377  0.62328550  0.47458674     0.21000
C1684       C  0.86146327  0.62281816  0.47914841     0.03200
C1685       C  0.85353267  0.62217083  0.50141865    -0.22200
C1686       C  0.86958177  0.62215315  0.51880982     0.12400
S1687       S  0.90924491  0.62273449  0.53767540    -0.05800
C1688       C  0.88510468  0.62258795  0.55386768    -0.09300
C1689       C  0.86521965  0.62217169  0.54152991    -0.25900
S1690       S  0.84473765  0.62353447  0.45571323    -0.03100
C1691       C  0.86888663  0.62464402  0.43956075    -0.16500
C1692       C  0.88876364  0.62432638  0.45189684    -0.14500
H1693       H  0.91834467  0.62343874  0.48835347     0.20800
H1694       H  0.83562690  0.62196426  0.50503800     0.16900
H1695       H  0.84845872  0.62205381  0.54879028     0.19400
H1696       H  0.90552513  0.62494190  0.44465989     0.12700
C1697       C  0.38850160  0.13048296  0.72754022     0.16600
C1698       C  0.39593428  0.13652115  0.74919020    -0.32400
C1699       C  0.38376551  0.12813297  0.76768605     0.21000
C1700       C  0.36490010  0.11462218  0.76470441     0.03200
C1701       C  0.35784648  0.10812793  0.74313211    -0.22200
C1702       C  0.37016006  0.11623774  0.72469280     0.12400
S1703       S  0.40009074  0.13980277  0.70286480    -0.05800
C1704       C  0.38037193  0.12384179  0.68872771    -0.09300
C1705       C  0.36566884  0.11203262  0.70242949    -0.25900
S1706       S  0.35154742  0.10730178  0.78906394    -0.03100
C1707       C  0.37193188  0.12202012  0.80354854    -0.16500
C1708       C  0.38810678  0.13218969  0.79006659    -0.14500
H1709       H  0.41032295  0.14745136  0.75149674     0.20800
H1710       H  0.34326312  0.09746227  0.74081629     0.16900
H1711       H  0.35204449  0.10151455  0.69639905     0.19400
H1712       H  0.40192804  0.14234267  0.79627094     0.12700
C1713       C  0.23396505  0.13608295  0.60839969     0.16600
C1714       C  0.25569244  0.14198498  0.60103524    -0.32400
C1715       C  0.27412721  0.13337236  0.61319050     0.21000
C1716       C  0.27103344  0.11923788  0.63158149     0.03200
C1717       C  0.24938189  0.11383793  0.63924986    -0.22200
C1718       C  0.23100564  0.12269682  0.62734819     0.12400
S1719       S  0.20931345  0.14387343  0.59556437    -0.05800
C1720       C  0.19500019  0.12942775  0.61635157    -0.09300
C1721       C  0.20871617  0.11913637  0.63218817    -0.25900
S1722       S  0.29536749  0.10919077  0.64314864    -0.03100
C1723       C  0.30992732  0.12474607  0.62350775    -0.16500
C1724       C  0.29656354  0.13691347  0.60868120    -0.14500
H1725       H  0.25811670  0.15258764  0.58639760     0.20800
H1726       H  0.24696145  0.10299615  0.65371021     0.16900
H1727       H  0.20267948  0.10915975  0.64622349     0.19400
H1728       H  0.30291909  0.14721797  0.59502714     0.12700
C1729       C  0.37835680  0.10959417  0.26342409     0.16600
C1730       C  0.38454216  0.10484636  0.24112186    -0.32400
C1731       C  0.37339072  0.11661173  0.22389725     0.21000
C1732       C  0.35623219  0.13181400  0.22853458     0.03200
C1733       C  0.35014934  0.13669097  0.25087875    -0.22200
C1734       C  0.36190001  0.12553033  0.26816194     0.12400
S1735       S  0.39025335  0.09749831  0.28671445    -0.05800
C1736       C  0.37358111  0.11477714  0.30301789    -0.09300
C1737       C  0.35927277  0.12877156  0.29091962    -0.25900
S1738       S  0.34454883  0.14398000  0.20509828    -0.03100
C1739       C  0.36369433  0.12916416  0.18906703    -0.16500
C1740       C  0.37789329  0.11520933  0.20129855    -0.14500
H1741       H  0.39774924  0.09283780  0.23737833     0.20800
H1742       H  0.33716272  0.14893115  0.25463018     0.16900
H1743       H  0.34750496  0.14054536  0.29839717     0.19400
H1744       H  0.39082101  0.10459174  0.19399706     0.12700
C1745       C  0.37326888  0.10267606  0.47767977     0.16600
C1746       C  0.37324208  0.09357797  0.49951906    -0.32400
C1747       C  0.37398567  0.10868705  0.51771594     0.21000
C1748       C  0.37459949  0.13181414  0.51429162     0.03200
C1749       C  0.37448447  0.14090384  0.49248466    -0.22200
C1750       C  0.37386524  0.12580792  0.47431271     0.12400
S1751       S  0.37297446  0.08723108  0.45337938    -0.05800
C1752       C  0.37375363  0.11220188  0.43851645    -0.09300
C1753       C  0.37407215  0.13138773  0.45188200    -0.25900
S1754       S  0.37574145  0.14733271  0.53845621    -0.03100
C1755       C  0.37541786  0.12243655  0.55344417    -0.16500
C1756       C  0.37442237  0.10317524  0.54020121    -0.14500
H1757       H  0.37285437  0.07552049  0.50220195     0.20800
H1758       H  0.37504545  0.15895762  0.48979904     0.16900
H1759       H  0.37463546  0.14850228  0.44553595     0.19400
H1760       H  0.37413375  0.08609604  0.54665514     0.12700
C1761       C  0.73331430  0.12645945  0.63392450     0.16600
C1762       C  0.75495964  0.13298717  0.64069043    -0.32400
C1763       C  0.77317181  0.12565400  0.62757662     0.21000
C1764       C  0.77000456  0.11262796  0.60840412     0.03200
C1765       C  0.74835652  0.10562920  0.60192317    -0.22200
C1766       C  0.73012814  0.11275038  0.61522152     0.12400
S1767       S  0.70904351  0.13500928  0.64668886    -0.05800
C1768       C  0.69448294  0.11958933  0.62694431    -0.09300
C1769       C  0.70774754  0.10837453  0.61135468    -0.25900
S1770       S  0.79429502  0.10637233  0.59426469    -0.03100
C1771       C  0.80883888  0.12086270  0.61481917    -0.16500
C1772       C  0.79545911  0.13022208  0.63149321    -0.14500
H1773       H  0.75746381  0.14354297  0.65531055     0.20800
H1774       H  0.74582325  0.09537333  0.58709553     0.16900
H1775       H  0.70133184  0.09854937  0.59740029     0.19400
H1776       H  0.80170440  0.13991075  0.64561894     0.12700
C1777       C  0.63392416  0.13282120  0.73080636     0.16600
C1778       C  0.64052378  0.13999766  0.75232897    -0.32400
C1779       C  0.63060089  0.12935169  0.77094267     0.21000
C1780       C  0.61447321  0.11261584  0.76826384     0.03200
C1781       C  0.60823632  0.10508505  0.74672344    -0.22200
C1782       C  0.61849432  0.11544466  0.72809264     0.12400
S1783       S  0.64352152  0.14409421  0.70616487    -0.05800
C1784       C  0.62712812  0.12475711  0.69202979    -0.09300
C1785       C  0.61477469  0.11047806  0.70578982    -0.25900
S1786       S  0.60345982  0.10278618  0.79297718    -0.03100
C1787       C  0.62127648  0.12091764  0.80700511    -0.16500
C1788       C  0.63485643  0.13393610  0.79319798    -0.14500
H1789       H  0.65275274  0.15335102  0.75446489     0.20800
H1790       H  0.59587684  0.09185147  0.74458573     0.16900
H1791       H  0.60340948  0.09752264  0.69979452     0.19400
H1792       H  0.64679264  0.14639883  0.79912851     0.12700
C1793       C  0.48376794  0.10962050  0.62003657     0.16600
C1794       C  0.50533011  0.10009385  0.61926884    -0.32400
C1795       C  0.52378147  0.11471372  0.62098610     0.21000
C1796       C  0.52097103  0.13781096  0.62335760     0.03200
C1797       C  0.49937833  0.14735648  0.62414373    -0.22200
C1798       C  0.48090114  0.13271545  0.62238688     0.12400
S1799       S  0.45926764  0.09470806  0.61824340    -0.05800
C1800       C  0.44496632  0.11987170  0.62049802    -0.09300
C1801       C  0.45861952  0.13871664  0.62265871    -0.25900
S1802       S  0.54559448  0.15259477  0.62518363    -0.03100
C1803       C  0.55976028  0.12733261  0.62284923    -0.16500
C1804       C  0.54599696  0.10860236  0.62068680    -0.14500
H1805       H  0.50762744  0.08207311  0.61742555     0.20800
H1806       H  0.49708147  0.16537284  0.62601141     0.16900
H1807       H  0.45257080  0.15586027  0.62439078     0.19400
H1808       H  0.55192846  0.09140878  0.61902469     0.12700
C1809       C  0.63321621  0.12284284  0.26762073     0.16600
C1810       C  0.64169677  0.12262806  0.24556317    -0.32400
C1811       C  0.62653992  0.12701285  0.22794297     0.21000
C1812       C  0.60396160  0.13150279  0.23207643     0.03200
C1813       C  0.59556991  0.13218555  0.25416561    -0.22200
C1814       C  0.61070658  0.12772309  0.27178540     0.12400
S1815       S  0.64862008  0.11684667  0.29120803    -0.05800
C1816       C  0.62452765  0.12112943  0.30674678    -0.09300
C1817       C  0.60567155  0.12701825  0.29433748    -0.25900
S1818       S  0.58809926  0.13521279  0.20833553    -0.03100
C1819       C  0.61216548  0.13079125  0.19265528    -0.16500
C1820       C  0.63139837  0.12679395  0.20534795    -0.14500
H1821       H  0.65922543  0.11881067  0.24225674     0.20800
H1822       H  0.57796226  0.13563897  0.25744539     0.16900
H1823       H  0.58916387  0.13024881  0.30142029     0.19400
H1824       H  0.64793285  0.12339189  0.19840949     0.12700
C1825       C  0.51893047  0.10149356  0.37705763     0.16600
C1826       C  0.49746088  0.09158550  0.37759220    -0.32400
C1827       C  0.47870255  0.10585472  0.37548360     0.21000
C1828       C  0.48119236  0.12898706  0.37316215     0.03200
C1829       C  0.50265832  0.13891416  0.37282464    -0.22200
C1830       C  0.52142636  0.12462959  0.37476512     0.12400
S1831       S  0.54378253  0.08702356  0.37853110    -0.05800
C1832       C  0.55775136  0.11239993  0.37604531    -0.09300
C1833       C  0.54367354  0.13101079  0.37428923    -0.25900
S1834       S  0.45635913  0.14333962  0.37053831    -0.03100
C1835       C  0.44242423  0.11790010  0.37242281    -0.16500
C1836       C  0.45648881  0.09938538  0.37509796    -0.14500
H1837       H  0.49547390  0.07350914  0.37929220     0.20800
H1838       H  0.50465005  0.15696742  0.37089347     0.16900
H1839       H  0.54940465  0.14825048  0.37240969     0.19400
H1840       H  0.45077526  0.08210633  0.37662409     0.12700
C1841       C  0.62919067  0.13127647  0.51739679     0.16600
C1842       C  0.62954184  0.14018743  0.49556170    -0.32400
C1843       C  0.62879947  0.12499545  0.47750490     0.21000
C1844       C  0.62786162  0.10188887  0.48091008     0.03200
C1845       C  0.62752422  0.09292875  0.50283701    -0.22200
C1846       C  0.62816677  0.10818794  0.52097023     0.12400
S1847       S  0.62974678  0.14705826  0.54140879    -0.05800
C1848       C  0.62851905  0.12235254  0.55660700    -0.09300
C1849       C  0.62777148  0.10293701  0.54352401    -0.25900
S1850       S  0.62697491  0.08644991  0.45651828    -0.03100
C1851       C  0.62774167  0.11146999  0.44169658    -0.16500
C1852       C  0.62872012  0.13056610  0.45513474    -0.14500
H1853       H  0.63025335  0.15821943  0.49276085     0.20800
H1854       H  0.62669848  0.07490513  0.50563749     0.16900
H1855       H  0.62691127  0.08594058  0.55014383     0.19400
H1856       H  0.62926064  0.14771024  0.44885922     0.12700
C1857       C  0.14085680  0.61472116  0.73635987     0.16600
C1858       C  0.14652628  0.60605970  0.75763879    -0.32400
C1859       C  0.13764279  0.61700807  0.77665305     0.21000
C1860       C  0.12414605  0.63600799  0.77455360     0.03200
C1861       C  0.11812573  0.64437551  0.75332093    -0.22200
C1862       C  0.12659645  0.63316158  0.73434830     0.12400
S1863       S  0.14990305  0.60400658  0.71117741    -0.05800
C1864       C  0.13369701  0.62413304  0.69794941    -0.09300
C1865       C  0.12216331  0.63843270  0.71232122    -0.25900
S1866       S  0.11584957  0.64751831  0.79953455    -0.03100
C1867       C  0.13011297  0.62613892  0.81300873    -0.16500
C1868       C  0.14086176  0.61102844  0.79878269    -0.14500
H1869       H  0.15730475  0.59142994  0.75929413     0.20800
H1870       H  0.10726909  0.65894801  0.75166333     0.16900
H1871       H  0.11115420  0.65195395  0.70690326     0.19400
H1872       H  0.15071204  0.59669911  0.80434227     0.12700
C1873       C  0.12754521  0.76886616  0.65055187     0.16600
C1874       C  0.12311626  0.74708339  0.65859207    -0.32400
C1875       C  0.12782072  0.72889902  0.64421521     0.21000
C1876       C  0.13702938  0.73219140  0.62295853     0.03200
C1877       C  0.14120899  0.75399694  0.61481362    -0.22200
C1878       C  0.13605843  0.77220654  0.62902859     0.12400
S1879       S  0.12272589  0.79313999  0.66529207    -0.05800
C1880       C  0.13170410  0.80800225  0.64201001    -0.09300
C1881       C  0.13832304  0.79465469  0.62396195    -0.25900
S1882       S  0.14219598  0.70785789  0.60840127    -0.03100
C1883       C  0.13122729  0.69322887  0.63092667    -0.16500
C1884       C  0.12417419  0.70652446  0.64876610    -0.14500
H1885       H  0.11614058  0.74443548  0.67524716     0.20800
H1886       H  0.14803230  0.75665524  0.59809867     0.16900
H1887       H  0.14436809  0.80104115  0.60796403     0.19400
H1888       H  0.11699818  0.70011824  0.66428467     0.12700
C1889       C  0.12531827  0.63203044  0.23701450     0.16600
C1890       C  0.13390889  0.63579502  0.25868817    -0.32400
C1891       C  0.12085998  0.62864080  0.27704275     0.21000
C1892       C  0.09998000  0.61854687  0.27404621     0.03200
C1893       C  0.09153700  0.61441885  0.25231506    -0.22200
C1894       C  0.10480406  0.62120865  0.23390514     0.12400
S1895       S  0.13841253  0.63994452  0.21265028    -0.05800
C1896       C  0.11636328  0.62800660  0.19810378    -0.09300
C1897       C  0.09971244  0.61853577  0.21147489    -0.25900
S1898       S  0.08646977  0.61190338  0.29864983    -0.03100
C1899       C  0.10950405  0.62227031  0.31302421    -0.16500
C1900       C  0.12651582  0.63059629  0.29934184    -0.14500
H1901       H  0.15001467  0.64394617  0.26113428     0.20800
H1902       H  0.07540482  0.60630547  0.24987280     0.16900
H1903       H  0.08460028  0.61052789  0.20512494     0.19400
H1904       H  0.14209577  0.63788281  0.30540477     0.12700
C1905       C  0.10566702  0.62478874  0.52525583     0.16600
C1906       C  0.09497636  0.62358549  0.50417681    -0.32400
C1907       C  0.10866712  0.62425757  0.48486996     0.21000
C1908       C  0.13192494  0.62611721  0.48649601     0.03200
C1909       C  0.14257990  0.62734656  0.50752724    -0.22200
C1910       C  0.12893309  0.62657293  0.52678897     0.12400
S1911       S  0.09220674  0.62409821  0.55073214    -0.05800
C1912       C  0.11824604  0.62612181  0.56352310    -0.09300
C1913       C  0.13624245  0.62729585  0.54867014    -0.25900
S1914       S  0.14561206  0.62651561  0.46121455    -0.03100
C1915       C  0.11976101  0.62406806  0.44818837    -0.16500
C1916       C  0.10155850  0.62311443  0.46287486    -0.14500
H1917       H  0.07682255  0.62210452  0.50288393     0.20800
H1918       H  0.16074509  0.62873632  0.50882414     0.16900
H1919       H  0.15377900  0.62858973  0.55361858     0.19400
H1920       H  0.08409879  0.62158091  0.45774565     0.12700
C1921       C  0.11541777  0.26845589  0.63884057     0.16600
C1922       C  0.11161719  0.24637709  0.64645299    -0.32400
C1923       C  0.11817027  0.22858094  0.63226668     0.21000
C1924       C  0.12761416  0.23258250  0.61124621     0.03200
C1925       C  0.13171236  0.25461622  0.60378816    -0.22200
C1926       C  0.12563341  0.27237194  0.61816002     0.12400
S1927       S  0.10865835  0.29242449  0.65341107    -0.05800
C1928       C  0.12037680  0.30769780  0.63170053    -0.09300
C1929       C  0.12879016  0.29488600  0.61411640    -0.25900
S1930       S  0.13383985  0.20878524  0.59628927    -0.03100
C1931       C  0.12424833  0.19321659  0.61883957    -0.16500
C1932       C  0.11642662  0.20596666  0.63683137    -0.14500
H1933       H  0.10402203  0.24321167  0.66273727     0.20800
H1934       H  0.13943298  0.25777802  0.58756241     0.16900
H1935       H  0.13663292  0.30172989  0.59911992     0.19400
H1936       H  0.10976967  0.19905105  0.65235728     0.12700
C1937       C  0.11810718  0.38244283  0.73754025     0.16600
C1938       C  0.11160028  0.38868192  0.75933168    -0.32400
C1939       C  0.12054176  0.37633181  0.77735730     0.21000
C1940       C  0.13502587  0.35828702  0.77394577     0.03200
C1941       C  0.14192313  0.35232136  0.75210923    -0.22200
C1942       C  0.13327016  0.36496474  0.73404343     0.12400
S1943       S  0.10830095  0.39474054  0.71347610    -0.05800
C1944       C  0.12527744  0.37659654  0.69853489    -0.09300
C1945       C  0.13776611  0.36177347  0.71158323    -0.25900
S1946       S  0.14333825  0.34507415  0.79822552    -0.03100
C1947       C  0.12768770  0.36458662  0.81298754    -0.16500
C1948       C  0.11648301  0.38016459  0.79970685    -0.14500
H1949       H  0.10001292  0.40247783  0.76211123     0.20800
H1950       H  0.15343193  0.33845777  0.74932527     0.16900
H1951       H  0.14887872  0.34890927  0.70495039     0.19400
H1952       H  0.10594472  0.39361313  0.80610951     0.12700
C1953       C  0.13896331  0.48176593  0.62800863     0.16600
C1954       C  0.14858390  0.50332920  0.62694091    -0.32400
C1955       C  0.13406928  0.52193404  0.62868682     0.21000
C1956       C  0.11099717  0.51924968  0.63135893     0.03200
C1957       C  0.10136262  0.49768226  0.63232086    -0.22200
C1958       C  0.11587944  0.47906930  0.63057423     0.12400
S1959       S  0.15369313  0.45703809  0.62656605    -0.05800
C1960       C  0.12846900  0.44287347  0.62936960    -0.09300
C1961       C  0.10975106  0.45679459  0.63128436    -0.25900
S1962       S  0.09634534  0.54399469  0.63335168    -0.03100
C1963       C  0.12158191  0.55812230  0.63051410    -0.16500
C1964       C  0.14023470  0.54418853  0.62816356    -0.14500
H1965       H  0.16659851  0.50551253  0.62493537     0.20800
H1966       H  0.08335838  0.49550092  0.63441649     0.16900
H1967       H  0.09257446  0.45092975  0.63327549     0.19400
H1968       H  0.15742615  0.55002984  0.62622530     0.12700
C1969       C  0.13257741  0.38901956  0.23735546     0.16600
C1970       C  0.13982534  0.39506999  0.25906324    -0.32400
C1971       C  0.13039580  0.38345926  0.27743226     0.21000
C1972       C  0.11414235  0.36691743  0.27436561     0.03200
C1973       C  0.10727378  0.36055341  0.25268201    -0.22200
C1974       C  0.11700861  0.37183387  0.23433064     0.12400
S1975       S  0.14169726  0.40112991  0.21279452    -0.05800
C1976       C  0.12485693  0.38234507  0.19838698    -0.09300
C1977       C  0.11276795  0.36772760  0.21201079    -0.25900
S1978       S  0.10392689  0.35559424  0.29879624    -0.03100
C1979       C  0.12225011  0.37279601  0.31327829    -0.16500
C1980       C  0.13539096  0.38665419  0.29979547    -0.14500
H1981       H  0.15224059  0.40819900  0.26152353     0.20800
H1982       H  0.09488428  0.34739454  0.25021953     0.16900
H1983       H  0.10140839  0.35482435  0.20587164     0.19400
H1984       H  0.14764592  0.39863684  0.30606224     0.12700
C1985       C  0.10599152  0.51535464  0.38153548     0.16600
C1986       C  0.09719048  0.49342341  0.38197883    -0.32400
C1987       C  0.11253098  0.47543415  0.38167631     0.21000
C1988       C  0.13561592  0.47911118  0.38097672     0.03200
C1989       C  0.14442138  0.50105280  0.38050996    -0.22200
C1990       C  0.12907251  0.51905395  0.38079551     0.12400
S1991       S  0.09016919  0.53936994  0.38189366    -0.05800
C1992       C  0.11487784  0.55464773  0.38105572    -0.09300
C1993       C  0.13429706  0.54160020  0.38047135    -0.25900
S1994       S  0.15140110  0.45505235  0.38064830    -0.03100
C1995       C  0.12664928  0.43983610  0.38137715    -0.16500
C1996       C  0.10726502  0.45291612  0.38192779    -0.14500
H1997       H  0.07917383  0.49051349  0.38253302     0.20800
H1998       H  0.16243874  0.50396085  0.37994285     0.16900
H1999       H  0.15129953  0.54823835  0.37991678     0.19400
H2000       H  0.09024557  0.44631789  0.38239667     0.12700
C2001       C  0.11273238  0.37091292  0.52451207     0.16600
C2002       C  0.10322629  0.37055657  0.50291772    -0.32400
C2003       C  0.11796945  0.37056299  0.48447395     0.21000
C2004       C  0.14118010  0.37067582  0.48732733     0.03200
C2005       C  0.15071792  0.37084881  0.50897546    -0.22200
C2006       C  0.13593659  0.37107537  0.52745963     0.12400
S2007       S  0.09762424  0.37172160  0.54894279    -0.05800
C2008       C  0.12280043  0.37246877  0.56338707    -0.09300
C2009       C  0.14184338  0.37188657  0.54980279    -0.25900
S2010       S  0.15608128  0.37099534  0.46266833    -0.03100
C2011       C  0.13073379  0.37109860  0.44842413    -0.16500
C2012       C  0.11187995  0.37078807  0.46222275    -0.14500
H2013       H  0.08511801  0.37056964  0.50058893     0.20800
H2014       H  0.16882724  0.37108228  0.51130278     0.16900
H2015       H  0.15904724  0.37228005  0.55592421     0.19400
H2016       H  0.09460787  0.37084172  0.45629406     0.12700
C2017       C  0.73366845  0.89582255  0.37807431     0.16600
C2018       C  0.75560890  0.90047208  0.38561385    -0.32400
C2019       C  0.77350296  0.88924304  0.37492209     0.21000
C2020       C  0.76976558  0.87441166  0.35722489     0.03200
C2021       C  0.74781382  0.86939660  0.35003686    -0.22200
C2022       C  0.72990783  0.88027360  0.36100543     0.12400
S2023       S  0.70967525  0.90780777  0.38861780    -0.05800
C2024       C  0.69445108  0.89109541  0.37037882    -0.09300
C2025       C  0.70738746  0.87725460  0.35673452    -0.25900
S2026       S  0.79376769  0.86348306  0.34562255    -0.03100
C2027       C  0.80897976  0.87854245  0.36521804    -0.16500
C2028       C  0.79600523  0.89138943  0.37984265    -0.14500
H2029       H  0.75859594  0.91230400  0.39916743     0.20800
H2030       H  0.74482524  0.85756508  0.33648313     0.16900
H2031       H  0.70065580  0.86565952  0.34435253     0.19400
H2032       H  0.80272616  0.90207491  0.39302525     0.12700
C2033       C  0.88184935  0.77066920  0.36146900     0.16600
C2034       C  0.88750978  0.74879498  0.35465827    -0.32400
C2035       C  0.87649972  0.73083642  0.36532180     0.21000
C2036       C  0.86023599  0.73443489  0.38174741     0.03200
C2037       C  0.85492003  0.75634033  0.38892271    -0.22200
C2038       C  0.86625823  0.77432858  0.37852822     0.12400
S2039       S  0.89270858  0.79464695  0.34993720    -0.05800
C2040       C  0.87657709  0.80979383  0.36869917    -0.09300
C2041       C  0.86342813  0.79684483  0.38303175    -0.25900
S2042       S  0.84808107  0.71031447  0.39180276    -0.03100
C2043       C  0.86567575  0.69533433  0.37422848    -0.16500
C2044       C  0.87990983  0.70840473  0.36116120    -0.14500
H2045       H  0.89986276  0.74590512  0.34154842     0.20800
H2046       H  0.84245436  0.75923388  0.40192170     0.16900
H2047       H  0.85199013  0.80356281  0.39556747     0.19400
H2048       H  0.89192762  0.70181992  0.34910150     0.12700
C2049       C  0.88204395  0.27160047  0.35388337     0.16600
C2050       C  0.88669201  0.24983310  0.34574930    -0.32400
C2051       C  0.88035478  0.23145205  0.35930821     0.21000
C2052       C  0.87033550  0.23468409  0.38019900     0.03200
C2053       C  0.86540918  0.25634981  0.38813955    -0.22200
C2054       C  0.87124444  0.27463891  0.37441380     0.12400
S2055       S  0.88837208  0.29620635  0.34021094    -0.05800
C2056       C  0.87567614  0.31048898  0.36209488    -0.09300
C2057       C  0.86726230  0.29690228  0.37905423    -0.25900
S2058       S  0.86458576  0.21047438  0.39453471    -0.03100
C2059       C  0.87514491  0.19564478  0.37193612    -0.16500
C2060       C  0.88294195  0.20895705  0.35432242    -0.14500
H2061       H  0.89476049  0.24734379  0.32958548     0.20800
H2062       H  0.85726696  0.25883549  0.40426882     0.16900
H2063       H  0.85883620  0.30303059  0.39403865     0.19400
H2064       H  0.89027727  0.20254357  0.33889341     0.12700
C2065       C  0.73180490  0.11573486  0.35986940     0.16600
C2066       C  0.75339908  0.11257340  0.35067394    -0.32400
C2067       C  0.77190772  0.12057215  0.36310121     0.21000
C2068       C  0.76901317  0.13093345  0.38387428     0.03200
C2069       C  0.74744333  0.13448529  0.39283389    -0.22200
C2070       C  0.72895280  0.12681639  0.38027941     0.12400
S2071       S  0.70722097  0.10664317  0.34788839    -0.05800
C2072       C  0.69303240  0.11848266  0.37029139    -0.09300
C2073       C  0.70667524  0.12874316  0.38619263    -0.25900
S2074       S  0.79350820  0.13831523  0.39696645    -0.03100
C2075       C  0.80789784  0.12782523  0.37402965    -0.16500
C2076       C  0.79426186  0.11899988  0.35718500    -0.14500
H2077       H  0.75567074  0.10413771  0.33469077     0.20800
H2078       H  0.74518852  0.14271647  0.40892927     0.16900
H2079       H  0.70063402  0.13676456  0.40141817     0.19400
H2080       H  0.80037779  0.11138859  0.34178472     0.12700
C2081       C  0.87511824  0.02106049  0.38485833     0.16600
C2082       C  0.87510884  0.99933653  0.39417432    -0.32400
C2083       C  0.87529298  0.98099997  0.37924204     0.21000
C2084       C  0.87532856  0.98413638  0.35606514     0.03200
C2085       C  0.87521098  0.00585511  0.34675132    -0.22200
C2086       C  0.87517942  0.02419137  0.36168155     0.12400
S2087       S  0.87528869  0.04548287  0.40008602    -0.05800
C2088       C  0.87548456  0.06010916  0.37496338    -0.09300
C2089       C  0.87537440  0.04657086  0.35589207    -0.25900
S2090       S  0.87582288  0.95973751  0.34082191    -0.03100
C2091       C  0.87612513  0.94511369  0.36593560    -0.16500
C2092       C  0.87569996  0.95862211  0.38502055    -0.14500
H2093       H  0.87513538  0.99683798  0.41226868     0.20800
H2094       H  0.87531407  0.00835211  0.32865853     0.16900
H2095       H  0.87548369  0.05276407  0.33870969     0.19400
H2096       H  0.87579117  0.95241245  0.40219888     0.12700
C2097       C  0.13259100  0.76541584  0.37015287     0.16600
C2098       C  0.13984496  0.74337788  0.36567579    -0.32400
C2099       C  0.12623295  0.72560399  0.37328753     0.21000
C2100       C  0.10608479  0.72954376  0.38448977     0.03200
C2101       C  0.09902844  0.75158647  0.38933771    -0.22200
C2102       C  0.11286629  0.76936296  0.38210263     0.12400
S2103       S  0.14647592  0.78927535  0.36194926    -0.05800
C2104       C  0.12585217  0.80465388  0.37534842    -0.09300
C2105       C  0.10909194  0.79192084  0.38544975    -0.25900
S2106       S  0.09165146  0.70564914  0.39161778    -0.03100
C2107       C  0.11333394  0.69020861  0.37997101    -0.16500
C2108       C  0.13060018  0.70305297  0.37085921    -0.14500
H2109       H  0.15537219  0.74022979  0.35668544     0.20800
H2110       H  0.08351239  0.75473194  0.39834566     0.16900
H2111       H  0.09480658  0.79882697  0.39444079     0.19400
H2112       H  0.14546929  0.69624822  0.36278260     0.12700
C2113       C  0.23345519  0.87193246  0.39773330     0.16600
C2114       C  0.25483914  0.87637686  0.40685916    -0.32400
C2115       C  0.27375923  0.86909042  0.39462717     0.21000
C2116       C  0.27149032  0.85724898  0.37457600     0.03200
C2117       C  0.25012999  0.85302369  0.36533630    -0.22200
C2118       C  0.23124544  0.86093001  0.37721600     0.12400
S2119       S  0.20840510  0.87980668  0.40967165    -0.05800
C2120       C  0.19487086  0.86894136  0.38636487    -0.09300
C2121       C  0.20915812  0.85937123  0.37049684    -0.25900
S2122       S  0.29647942  0.84944191  0.36253716    -0.03100
C2123       C  0.31009501  0.86298950  0.38428672    -0.16500
C2124       C  0.29595344  0.87271293  0.40013818    -0.14500
H2125       H  0.25665408  0.88541381  0.42259156     0.20800
H2126       H  0.24832771  0.84427667  0.34943737     0.16900
H2127       H  0.20365896  0.85171083  0.35487148     0.19400
H2128       H  0.30162704  0.88190722  0.41484497     0.12700
C2129       C  0.02181126  0.87812677  0.35678644     0.16600
C2130       C  0.00062885  0.88003730  0.34625269    -0.32400
C2131       C  0.98129277  0.87799557  0.35987240     0.21000
C2132       C  0.98306773  0.87434785  0.38290461     0.03200
C2133       C  0.00414432  0.87252256  0.39337667    -0.22200
C2134       C  0.02337913  0.87447130  0.37982222     0.12400
S2135       S  0.04739849  0.87962935  0.34344334    -0.05800
C2136       C  0.06021833  0.87520843  0.36922146    -0.09300
C2137       C  0.04526618  0.87288636  0.38703367    -0.25900
S2138       S  0.95790225  0.87236962  0.39663761    -0.03100
C2139       C  0.94456811  0.87647875  0.37116463    -0.16500
C2140       C  0.95914213  0.87917265  0.35297896    -0.14500
H2141       H  0.99928148  0.88286667  0.32825949     0.20800
H2142       H  0.00549306  0.86961366  0.41136028     0.16900
H2143       H  0.05014690  0.86996732  0.40439467     0.19400
H2144       H  0.95383350  0.88194312  0.33572347     0.12700
C2145       C  0.26820423  0.10234034  0.36516363     0.16600
C2146       C  0.24638534  0.09530006  0.35944814    -0.32400
C2147       C  0.22826317  0.10792208  0.36790968     0.21000
C2148       C  0.23165493  0.12636568  0.38190937     0.03200
C2149       C  0.25345463  0.13360471  0.38732097    -0.22200
C2150       C  0.27156457  0.12131986  0.37841786     0.12400
S2151       S  0.29248624  0.08938654  0.35664078    -0.05800
C2152       C  0.30722520  0.11019419  0.37050981    -0.09300
C2153       C  0.29393909  0.12607007  0.38130344    -0.25900
S2154       S  0.20746813  0.13904028  0.39098903    -0.03100
C2155       C  0.19273373  0.11977188  0.37512922    -0.16500
C2156       C  0.20586880  0.10424304  0.36369308    -0.14500
H2157       H  0.24366307  0.08077467  0.34876776     0.20800
H2158       H  0.25618037  0.14823667  0.39785461     0.16900
H2159       H  0.30033761  0.14023544  0.39086658     0.19400
H2160       H  0.19935109  0.09099184  0.35297052     0.12700
C2161       C  0.13650157  0.22888454  0.36379392     0.16600
C2162       C  0.14338012  0.25066886  0.35769015    -0.32400
C2163       C  0.13465433  0.26880659  0.37012885     0.21000
C2164       C  0.11949810  0.26542482  0.38763020     0.03200
C2165       C  0.11305983  0.24363488  0.39407898    -0.22200
C2166       C  0.12201771  0.22550492  0.38184628     0.12400
S2167       S  0.14454551  0.20468212  0.35039909    -0.05800
C2168       C  0.12873641  0.18987648  0.36973968    -0.09300
C2169       C  0.11774030  0.20311442  0.38553091    -0.25900
S2170       S  0.10957000  0.28963964  0.39957448    -0.03100
C2171       C  0.12642739  0.30444831  0.38117897    -0.16500
C2172       C  0.13902730  0.29124221  0.36660900    -0.14500
H2173       H  0.15482222  0.25336880  0.34376046     0.20800
H2174       H  0.10141339  0.24094591  0.40784316     0.16900
H2175       H  0.10697168  0.19669902  0.39878893     0.19400
H2176       H  0.15017885  0.29773662  0.35371454     0.12700
C2177       C  0.01924726  0.12612241  0.35428707     0.16600
C2178       C  0.99752301  0.12607007  0.34490256    -0.32400
C2179       C  0.97915599  0.12736764  0.35979421     0.21000
C2180       C  0.98231606  0.12878982  0.38293062     0.03200
C2181       C  0.00395819  0.12893445  0.39226270    -0.22200
C2182       C  0.02224544  0.12748440  0.37743885     0.12400
S2183       S  0.04383071  0.12430324  0.33932567    -0.05800
C2184       C  0.05815501  0.12525460  0.36461189    -0.09300
C2185       C  0.04446848  0.12698836  0.38344409    -0.25900
S2186       S  0.95806351  0.12990302  0.39824562    -0.03100
C2187       C  0.94334577  0.12833235  0.37326858    -0.16500
C2188       C  0.95673142  0.12714761  0.35411104    -0.14500
H2189       H  0.99504461  0.12489094  0.32684855     0.20800
H2190       H  0.00643611  0.12993449  0.41033406     0.16900
H2191       H  0.05046260  0.12776783  0.40068603     0.19400
H2192       H  0.95041094  0.12599970  0.33701475     0.12700
C2193       C  0.12209874  0.97884566  0.38902753     0.16600
C2194       C  0.11828916  0.00058769  0.39755907    -0.32400
C2195       C  0.12145448  0.01885212  0.38283609     0.21000
C2196       C  0.12784996  0.01556517  0.36057716     0.03200
C2197       C  0.13155287  0.99387319  0.35205264    -0.22200
C2198       C  0.12860764  0.97566623  0.36679207     0.12400
S2199       S  0.11953455  0.95445163  0.40412821    -0.05800
C2200       C  0.12735226  0.93986912  0.38020319    -0.09300
C2201       C  0.13161277  0.95336748  0.36162255    -0.25900
S2202       S  0.13106076  0.03975922  0.34542719    -0.03100
C2203       C  0.12399563  0.05459967  0.36936377    -0.16500
C2204       C  0.11924133  0.04129932  0.38801786    -0.14500
H2205       H  0.11329261  0.00315988  0.41492902     0.20800
H2206       H  0.13668258  0.99130935  0.33472043     0.16900
H2207       H  0.13656065  0.94719235  0.34516688     0.19400
H2208       H  0.11462029  0.04770153  0.40448291     0.12700
loop_ 
_geom_bond_atom_site_label_1 
_geom_bond_atom_site_label_2 
_geom_bond_distance 
_geom_bond_site_symmetry_2 
_ccdc_geom_bond_type 
O1           Ni9   1.921       .  S
O1           C11   1.281       .  A
O2           Ni9   1.914       .  S
O2           C12   1.280       .  A
O3           Ni9   1.912       .  S
O3           C13   1.280       .  A
O4           Ni9   1.920       .  S
O4           C14   1.281       .  A
O5          Ni10   1.916       .  S
O5           C14   1.281       .  A
O6          Ni10   1.922       .  S
O6           C13   1.282       .  A
O7          Ni10   1.916       .  S
O7           C12   1.280       .  A
O8          Ni10   1.909       .  S
O8           C11   1.280       .  A
Ni9         Ni10   2.391       .  S
C11        C2184   1.470       .  S
C12        C2155   1.461       .  S
C13        C2203   1.471       .  S
C14        C2168   1.468       .  S
O15         Ni23   1.918       .  S
O15          C25   1.281       .  A
O16         Ni23   1.916       .  S
O16          C26   1.280       .  A
O17         Ni23   1.918       .  S
O17          C27   1.282       .  A
O18         Ni23   1.926       .  S
O18          C28   1.282       .  A
O19         Ni24   1.919       .  S
O19          C28   1.281       .  A
O20         Ni24   1.926       .  S
O20          C27   1.282       .  A
O21         Ni24   1.920       .  S
O21          C26   1.282       .  A
O22         Ni24   1.918       .  S
O22          C25   1.280       .  A
Ni23        Ni24   2.390       .  S
C25        C2104   1.465       .  S
C26        C2200   1.472       .  S
C27        C2136   1.478       .  S
C28        C2120   1.474       .  S
O29         Ni37   1.926       .  S
O29          C39   1.282       .  A
O30         Ni37   1.921       .  S
O30          C40   1.282       .  A
O31         Ni37   1.927       .  S
O31          C41   1.283       .  A
O32         Ni37   1.921       .  S
O32          C42   1.282       .  A
O33         Ni38   1.912       .  S
O33          C42   1.280       .  A
O34         Ni38   1.910       .  S
O34          C41   1.279       .  A
O35         Ni38   1.917       .  S
O35          C40   1.281       .  A
O36         Ni38   1.912       .  S
O36          C39   1.280       .  A
Ni37        Ni38   2.390       .  S
C39        C2059   1.471       .  S
C40        C2088   1.473       .  S
C41        C2075   1.471       .  S
C42        C2187   1.470       .  S
O43         Ni51   1.915       .  S
O43          C53   1.280       .  A
O44         Ni51   1.912       .  S
O44          C54   1.279       .  A
O45         Ni51   1.926       .  S
O45          C55   1.283       .  A
O46         Ni51   1.926       .  S
O46          C56   1.282       .  A
O47         Ni52   1.919       .  S
O47          C56   1.282       .  A
O48         Ni52   1.915       .  S
O48          C55   1.280       .  A
O49         Ni52   1.924       .  S
O49          C54   1.282       .  A
O50         Ni52   1.919       .  S
O50          C53   1.282       .  A
Ni51        Ni52   2.388       .  S
C53        C2091   1.472       .  S
C54        C2040   1.466       .  S
C55        C2027   1.470       .  S
C56        C2139   1.478       .  S
O57         Ni65   1.917       .  S
O57          C67   1.280       .  A
O58         Ni65   1.921       .  S
O58          C68   1.281       .  A
O59         Ni65   1.922       .  S
O59          C69   1.281       .  A
O60         Ni65   1.916       .  S
O60          C70   1.281       .  A
O61         Ni66   1.921       .  S
O61          C70   1.282       .  A
O62         Ni66   1.914       .  S
O62          C69   1.280       .  A
O63         Ni66   1.914       .  S
O63          C68   1.281       .  A
O64         Ni66   1.921       .  S
O64          C67   1.281       .  A
Ni65        Ni66   2.389       .  S
C67        C1979   1.468       .  S
C68        C2011   1.472       .  S
C69        C2171   1.466       .  S
C70        C1995   1.473       .  S
O71         Ni79   1.910       .  S
O71          C81   1.279       .  A
O72         Ni79   1.916       .  S
O72          C82   1.281       .  A
O73         Ni79   1.921       .  S
O73          C83   1.281       .  A
O74         Ni79   1.917       .  S
O74          C84   1.281       .  A
O75         Ni80   1.923       .  S
O75          C84   1.282       .  A
O76         Ni80   1.916       .  S
O76          C83   1.280       .  A
O77         Ni80   1.917       .  S
O77          C82   1.281       .  A
O78         Ni80   1.923       .  S
O78          C81   1.282       .  A
Ni79        Ni80   2.390       .  S
C81        C1944   1.464       .  S
C82        C2008   1.471       .  S
C83        C1928   1.464       .  S
C84        C1960   1.475       .  S
O85         Ni93   1.914       .  S
O85          C95   1.281       .  A
O86         Ni93   1.917       .  S
O86          C96   1.281       .  A
O87         Ni93   1.924       .  S
O87          C97   1.282       .  A
O88         Ni93   1.917       .  S
O88          C98   1.281       .  A
O89         Ni94   1.920       .  S
O89          C98   1.281       .  A
O90         Ni94   1.915       .  S
O90          C97   1.281       .  A
O91         Ni94   1.921       .  S
O91          C96   1.282       .  A
O92         Ni94   1.924       .  S
O92          C95   1.282       .  A
Ni93        Ni94   2.389       .  S
C95        C1899   1.471       .  S
C96        C1915   1.473       .  S
C97        C1992   1.474       .  S
C98        C2107   1.471       .  S
O99        Ni107   1.920       .  S
O99         C109   1.281       .  A
O100       Ni107   1.924       .  S
O100        C110   1.282       .  A
O101       Ni107   1.913       .  S
O101        C111   1.280       .  A
O102       Ni107   1.919       .  S
O102        C112   1.281       .  A
O103       Ni108   1.916       .  S
O103        C112   1.281       .  A
O104       Ni108   1.921       .  S
O104        C111   1.281       .  A
O105       Ni108   1.914       .  S
O105        C110   1.281       .  A
O106       Ni108   1.919       .  S
O106        C109   1.280       .  A
Ni107      Ni108   2.391       .  S
C109       C1883   1.465       .  S
C110       C1963   1.474       .  S
C111       C1864   1.464       .  S
C112       C1912   1.472       .  S
O113       Ni121   1.924       .  S
O113        C123   1.282       .  A
O114       Ni121   1.924       .  S
O114        C124   1.283       .  A
O115       Ni121   1.911       .  S
O115        C125   1.280       .  A
O116       Ni121   1.914       .  S
O116        C126   1.279       .  A
O117       Ni122   1.921       .  S
O117        C126   1.281       .  A
O118       Ni122   1.927       .  S
O118        C125   1.283       .  A
O119       Ni122   1.918       .  S
O119        C124   1.281       .  A
O120       Ni122   1.916       .  S
O120        C123   1.279       .  A
Ni121      Ni122   2.391       .  S
C123       C2072   1.466       .  S
C124       C1832   1.475       .  S
C125       C1851   1.474       .  S
C126       C1816   1.461       .  S
O127       Ni135   1.908       .  S
O127        C137   1.279       .  A
O128       Ni135   1.914       .  S
O128        C138   1.280       .  A
O129       Ni135   1.911       .  S
O129        C139   1.279       .  A
O130       Ni135   1.917       .  S
O130        C140   1.281       .  A
O131       Ni136   1.921       .  S
O131        C140   1.282       .  A
O132       Ni136   1.926       .  S
O132        C139   1.283       .  A
O133       Ni136   1.914       .  S
O133        C138   1.281       .  A
O134       Ni136   1.921       .  S
O134        C137   1.281       .  A
Ni135      Ni136   2.391       .  S
C137       C1768   1.460       .  S
C138       C1803   1.468       .  S
C139       C1784   1.468       .  S
C140       C1848   1.473       .  S
O141       Ni149   1.921       .  S
O141        C151   1.281       .  A
O142       Ni149   1.921       .  S
O142        C152   1.282       .  A
O143       Ni149   1.919       .  S
O143        C153   1.281       .  A
O144       Ni149   1.918       .  S
O144        C154   1.280       .  A
O145       Ni150   1.923       .  S
O145        C154   1.282       .  A
O146       Ni150   1.918       .  S
O146        C153   1.282       .  A
O147       Ni150   1.919       .  S
O147        C152   1.281       .  A
O148       Ni150   1.911       .  S
O148        C151   1.280       .  A
Ni149      Ni150   2.389       .  S
C151       C2152   1.466       .  S
C152       C1835   1.475       .  S
C153       C1752   1.473       .  S
C154       C1736   1.470       .  S
O155       Ni163   1.912       .  S
O155        C165   1.279       .  A
O156       Ni163   1.914       .  S
O156        C166   1.280       .  A
O157       Ni163   1.920       .  S
O157        C167   1.281       .  A
O158       Ni163   1.926       .  S
O158        C168   1.283       .  A
O159       Ni164   1.911       .  S
O159        C168   1.280       .  A
O160       Ni164   1.916       .  S
O160        C167   1.280       .  A
O161       Ni164   1.915       .  S
O161        C166   1.281       .  A
O162       Ni164   1.923       .  S
O162        C165   1.282       .  A
Ni163      Ni164   2.391       .  S
C165       C1723   1.464       .  S
C166       C1800   1.468       .  S
C167       C1704   1.465       .  S
C168       C1755   1.473       .  S
O169       Ni177   1.922       .  S
O169        C179   1.282       .  A
O170       Ni177   1.918       .  S
O170        C180   1.281       .  A
O171       Ni177   1.915       .  S
O171        C181   1.280       .  A
O172       Ni177   1.909       .  S
O172        C182   1.279       .  A
O173       Ni178   1.925       .  S
O173        C182   1.283       .  A
O174       Ni178   1.919       .  S
O174        C181   1.280       .  A
O175       Ni178   1.922       .  S
O175        C180   1.281       .  A
O176       Ni178   1.917       .  S
O176        C179   1.281       .  A
Ni177      Ni178   2.389       .  S
C179       C1691   1.474       .  S
C180       C1659   1.468       .  S
C181       C2043   1.465       .  S
C182       C1672   1.471       .  S
O183       Ni191   1.923       .  S
O183        C193   1.282       .  A
O184       Ni191   1.918       .  S
O184        C194   1.282       .  A
O185       Ni191   1.913       .  S
O185        C195   1.280       .  A
O186       Ni191   1.921       .  S
O186        C196   1.282       .  A
O187       Ni192   1.919       .  S
O187        C196   1.281       .  A
O188       Ni192   1.922       .  S
O188        C195   1.282       .  A
O189       Ni192   1.919       .  S
O189        C194   1.281       .  A
O190       Ni192   1.915       .  S
O190        C193   1.280       .  A
Ni191      Ni192   2.389       .  S
C193       C1608   1.467       .  S
C194       C1640   1.473       .  S
C195       C1624   1.469       .  S
C196       C1688   1.475       .  S
O197       Ni205   1.922       .  S
O197        C207   1.282       .  A
O198       Ni205   1.913       .  S
O198        C208   1.281       .  A
O199       Ni205   1.912       .  S
O199        C209   1.281       .  A
O200       Ni205   1.919       .  S
O200        C210   1.280       .  A
O201       Ni206   1.919       .  S
O201        C210   1.281       .  A
O202       Ni206   1.924       .  S
O202        C209   1.282       .  A
O203       Ni206   1.921       .  S
O203        C208   1.281       .  A
O204       Ni206   1.919       .  S
O204        C207   1.282       .  A
Ni205      Ni206   2.389       .  S
C207       C1592   1.476       .  S
C208       C1579   1.467       .  S
C209       C1675   1.472       .  S
C210       C2056   1.465       .  S
O211       Ni219   1.923       .  S
O211        C221   1.283       .  A
O212       Ni219   1.918       .  S
O212        C222   1.280       .  A
O213       Ni219   1.920       .  S
O213        C223   1.282       .  A
O214       Ni219   1.926       .  S
O214        C224   1.282       .  A
O215       Ni220   1.920       .  S
O215        C224   1.281       .  A
O216       Ni220   1.925       .  S
O216        C223   1.283       .  A
O217       Ni220   1.920       .  S
O217        C222   1.281       .  A
O218       Ni220   1.915       .  S
O218        C221   1.280       .  A
Ni219      Ni220   2.388       .  S
C221       C1643   1.473       .  S
C222       C1563   1.467       .  S
C223       C1595   1.478       .  S
C224       C1544   1.472       .  S
O225       Ni233   1.919       .  S
O225        C235   1.280       .  A
O226       Ni233   1.911       .  S
O226        C236   1.280       .  A
O227       Ni233   1.920       .  S
O227        C237   1.282       .  A
O228       Ni233   1.914       .  S
O228        C238   1.280       .  A
O229       Ni234   1.921       .  S
O229        C238   1.282       .  A
O230       Ni234   1.917       .  S
O230        C237   1.281       .  A
O231       Ni234   1.926       .  S
O231        C236   1.283       .  A
O232       Ni234   1.922       .  S
O232        C235   1.281       .  A
Ni233      Ni234   2.389       .  S
C235       C2123   1.467       .  S
C236       C1515   1.473       .  S
C237       C1531   1.473       .  S
C238       C1496   1.467       .  S
O239       Ni247   1.914       .  S
O239        C249   1.280       .  A
O240       Ni247   1.917       .  S
O240        C250   1.280       .  A
O241       Ni247   1.925       .  S
O241        C251   1.282       .  A
O242       Ni247   1.917       .  S
O242        C252   1.282       .  A
O243       Ni248   1.920       .  S
O243        C252   1.281       .  A
O244       Ni248   1.916       .  S
O244        C251   1.281       .  A
O245       Ni248   1.922       .  S
O245        C250   1.283       .  A
O246       Ni248   1.926       .  S
O246        C249   1.282       .  A
Ni247      Ni248   2.388       .  S
C249       C1448   1.471       .  S
C250       C1483   1.474       .  S
C251       C1464   1.472       .  S
C252       C1528   1.473       .  S
O253       Ni261   1.913       .  S
O253        C263   1.280       .  A
O254       Ni261   1.918       .  S
O254        C264   1.280       .  A
O255       Ni261   1.920       .  S
O255        C265   1.281       .  A
O256       Ni261   1.917       .  S
O256        C266   1.281       .  A
O257       Ni262   1.924       .  S
O257        C266   1.282       .  A
O258       Ni262   1.918       .  S
O258        C265   1.282       .  A
O259       Ni262   1.919       .  S
O259        C264   1.281       .  A
O260       Ni262   1.925       .  S
O260        C263   1.283       .  A
Ni261      Ni262   2.389       .  S
C263       C1480   1.474       .  S
C264       C1416   1.466       .  S
C265       C1432   1.474       .  S
C266       C1400   1.473       .  S
O267       Ni275   1.915       .  S
O267        C277   1.280       .  A
O268       Ni275   1.911       .  S
O268        C278   1.279       .  A
O269       Ni275   1.921       .  S
O269        C279   1.282       .  A
O270       Ni275   1.917       .  S
O270        C280   1.281       .  A
O271       Ni276   1.920       .  S
O271        C280   1.281       .  A
O272       Ni276   1.917       .  S
O272        C279   1.280       .  A
O273       Ni276   1.929       .  S
O273        C278   1.283       .  A
O274       Ni276   1.923       .  S
O274        C277   1.282       .  A
Ni275      Ni276   2.389       .  S
C277       C1435   1.473       .  S
C278       C1384   1.471       .  S
C279       C2024   1.468       .  S
C280       C1512   1.473       .  S
O281       Ni289   1.915       .  S
O281        C291   1.281       .  A
O282       Ni289   1.921       .  S
O282        C292   1.282       .  A
O283       Ni289   1.915       .  S
O283        C293   1.280       .  A
O284       Ni289   1.916       .  S
O284        C294   1.281       .  A
O285       Ni290   1.919       .  S
O285        C294   1.281       .  A
O286       Ni290   1.922       .  S
O286        C293   1.281       .  A
O287       Ni290   1.919       .  S
O287        C292   1.281       .  A
O288       Ni290   1.924       .  S
O288        C291   1.282       .  A
Ni289      Ni290   2.390       .  S
C291       C1880   1.473       .  S
C292       C1368   1.475       .  S
C293       C1451   1.467       .  S
C294       C1352   1.472       .  S
O295       Ni303   1.925       .  S
O295        C305   1.283       .  A
O296       Ni303   1.921       .  S
O296        C306   1.281       .  A
O297       Ni303   1.926       .  S
O297        C307   1.283       .  A
O298       Ni303   1.920       .  S
O298        C308   1.281       .  A
O299       Ni304   1.919       .  S
O299        C308   1.281       .  A
O300       Ni304   1.914       .  S
O300        C307   1.281       .  A
O301       Ni304   1.920       .  S
O301        C306   1.282       .  A
O302       Ni304   1.916       .  S
O302        C305   1.280       .  A
Ni303      Ni304   2.389       .  S
C305       C1336   1.476       .  S
C306       C1720   1.471       .  S
C307       C1371   1.475       .  S
C308       C1931   1.471       .  S
O309       Ni317   1.919       .  S
O309        C319   1.282       .  A
O310       Ni317   1.929       .  S
O310        C320   1.283       .  A
O311       Ni317   1.916       .  S
O311        C321   1.280       .  A
O312       Ni317   1.919       .  S
O312        C322   1.282       .  A
O313       Ni318   1.919       .  S
O313        C322   1.281       .  A
O314       Ni318   1.924       .  S
O314        C321   1.282       .  A
O315       Ni318   1.912       .  S
O315        C320   1.280       .  A
O316       Ni318   1.916       .  S
O316        C319   1.280       .  A
Ni317      Ni318   2.390       .  S
C319       C1771   1.467       .  S
C320       C1339   1.476       .  S
C321       C1560   1.471       .  S
C322       C1320   1.474       .  S
O323       Ni331   1.922       .  S
O323        C333   1.281       .  A
O324       Ni331   1.917       .  S
O324        C334   1.281       .  A
O325       Ni331   1.923       .  S
O325        C335   1.281       .  A
O326       Ni331   1.917       .  S
O326        C336   1.281       .  A
O327       Ni332   1.923       .  S
O327        C336   1.282       .  A
O328       Ni332   1.916       .  S
O328        C335   1.281       .  A
O329       Ni332   1.919       .  S
O329        C334   1.281       .  A
O330       Ni332   1.913       .  S
O330        C333   1.281       .  A
Ni331      Ni332   2.389       .  S
C333       C1355   1.473       .  S
C334       C1419   1.469       .  S
C335       C1611   1.471       .  S
C336       C1323   1.475       .  S
O337       Ni345   1.919       .  S
O337        C347   1.282       .  A
O338       Ni345   1.924       .  S
O338        C348   1.281       .  A
O339       Ni345   1.918       .  S
O339        C349   1.280       .  A
O340       Ni345   1.919       .  S
O340        C350   1.281       .  A
O341       Ni346   1.918       .  S
O341        C350   1.281       .  A
O342       Ni346   1.927       .  S
O342        C349   1.283       .  A
O343       Ni346   1.914       .  S
O343        C348   1.280       .  A
O344       Ni346   1.919       .  S
O344        C347   1.281       .  A
Ni345      Ni346   2.389       .  S
C347       C1307   1.474       .  S
C348       C1739   1.469       .  S
C349       C1272   1.475       .  S
C350       C1291   1.472       .  S
O351       Ni359   1.915       .  S
O351        C361   1.281       .  A
O352       Ni359   1.911       .  S
O352        C362   1.279       .  A
O353       Ni359   1.921       .  S
O353        C363   1.281       .  A
O354       Ni359   1.924       .  S
O354        C364   1.282       .  A
O355       Ni360   1.918       .  S
O355        C364   1.281       .  A
O356       Ni360   1.922       .  S
O356        C363   1.282       .  A
O357       Ni360   1.925       .  S
O357        C362   1.282       .  A
O358       Ni360   1.921       .  S
O358        C361   1.282       .  A
Ni359      Ni360   2.388       .  S
C361       C1304   1.473       .  S
C362       C1707   1.468       .  S
C363       C1259   1.477       .  S
C364       C1243   1.473       .  S
O365       Ni373   1.914       .  S
O365        C375   1.280       .  A
O366       Ni373   1.922       .  S
O366        C376   1.282       .  A
O367       Ni373   1.919       .  S
O367        C377   1.281       .  A
O368       Ni373   1.923       .  S
O368        C378   1.282       .  A
O369       Ni374   1.916       .  S
O369        C378   1.281       .  A
O370       Ni374   1.922       .  S
O370        C377   1.281       .  A
O371       Ni374   1.922       .  S
O371        C376   1.282       .  A
O372       Ni374   1.928       .  S
O372        C375   1.282       .  A
Ni373      Ni374   2.390       .  S
C375       C1208   1.471       .  S
C376       C1256   1.477       .  S
C377       C1467   1.468       .  S
C378       C1224   1.474       .  S
O379       Ni387   1.914       .  S
O379        C389   1.280       .  A
O380       Ni387   1.919       .  S
O380        C390   1.281       .  A
O381       Ni387   1.920       .  S
O381        C391   1.281       .  A
O382       Ni387   1.923       .  S
O382        C392   1.283       .  A
O383       Ni388   1.914       .  S
O383        C392   1.280       .  A
O384       Ni388   1.917       .  S
O384        C391   1.280       .  A
O385       Ni388   1.915       .  S
O385        C390   1.281       .  A
O386       Ni388   1.918       .  S
O386        C389   1.282       .  A
Ni387      Ni388   2.391       .  S
C389       C1195   1.467       .  S
C390       C1288   1.471       .  S
C391       C1499   1.466       .  S
C392       C1227   1.473       .  S
O393       Ni401   1.914       .  S
O393        C403   1.280       .  A
O394       Ni401   1.914       .  S
O394        C404   1.280       .  A
O395       Ni401   1.915       .  S
O395        C405   1.280       .  A
O396       Ni401   1.915       .  S
O396        C406   1.281       .  A
O397       Ni402   1.920       .  S
O397        C406   1.281       .  A
O398       Ni402   1.914       .  S
O398        C405   1.280       .  A
O399       Ni402   1.921       .  S
O399        C404   1.282       .  A
O400       Ni402   1.925       .  S
O400        C403   1.283       .  A
Ni401      Ni402   2.391       .  S
C403       C1160   1.475       .  S
C404       C1144   1.469       .  S
C405       C1576   1.461       .  S
C406       C1179   1.471       .  S
O407       Ni415   1.913       .  S
O407        C417   1.280       .  A
O408       Ni415   1.921       .  S
O408        C418   1.281       .  A
O409       Ni415   1.928       .  S
O409        C419   1.283       .  A
O410       Ni415   1.930       .  S
O410        C420   1.283       .  A
O411       Ni416   1.907       .  S
O411        C420   1.279       .  A
O412       Ni416   1.914       .  S
O412        C419   1.280       .  A
O413       Ni416   1.918       .  S
O413        C418   1.282       .  A
O414       Ni416   1.926       .  S
O414        C417   1.283       .  A
Ni415      Ni416   2.389       .  S
C417       C1128   1.474       .  S
C418       C1112   1.472       .  S
C419       C1547   1.472       .  S
C420       C1176   1.473       .  S
O421       Ni429   1.921       .  S
O421        C431   1.282       .  A
O422       Ni429   1.927       .  S
O422        C432   1.282       .  A
O423       Ni429   1.917       .  S
O423        C433   1.280       .  A
O424       Ni429   1.922       .  S
O424        C434   1.282       .  A
O425       Ni430   1.918       .  S
O425        C434   1.281       .  A
O426       Ni430   1.925       .  S
O426        C433   1.282       .  A
O427       Ni430   1.912       .  S
O427        C432   1.280       .  A
O428       Ni430   1.916       .  S
O428        C431   1.281       .  A
Ni429      Ni430   2.389       .  S
C431       C1096   1.472       .  S
C432       C1976   1.470       .  S
C433       C1080   1.469       .  S
C434       C1163   1.475       .  S
O435       Ni443   1.923       .  S
O435        C445   1.283       .  A
O436       Ni443   1.926       .  S
O436        C446   1.282       .  A
O437       Ni443   1.920       .  S
O437        C447   1.281       .  A
O438       Ni443   1.923       .  S
O438        C448   1.283       .  A
O439       Ni444   1.915       .  S
O439        C448   1.280       .  A
O440       Ni444   1.918       .  S
O440        C447   1.281       .  A
O441       Ni444   1.908       .  S
O441        C446   1.279       .  A
O442       Ni444   1.913       .  S
O442        C445   1.280       .  A
Ni443      Ni444   2.388       .  S
C445       C1099   1.472       .  S
C446       C1947   1.467       .  S
C447       C1067   1.469       .  S
C448       C1131   1.474       .  S
O449       Ni457   1.921       .  S
O449        C459   1.282       .  A
O450       Ni457   1.917       .  S
O450        C460   1.280       .  A
O451       Ni457   1.921       .  S
O451        C461   1.281       .  A
O452       Ni457   1.915       .  S
O452        C462   1.281       .  A
O453       Ni458   1.922       .  S
O453        C462   1.282       .  A
O454       Ni458   1.917       .  S
O454        C461   1.280       .  A
O455       Ni458   1.921       .  S
O455        C460   1.282       .  A
O456       Ni458   1.918       .  S
O456        C459   1.281       .  A
Ni457      Ni458   2.389       .  S
C459       C1035   1.474       .  S
C460       C1019   1.469       .  S
C461       C1387   1.465       .  S
C462       C1051   1.473       .  S
O463       Ni471   1.909       .  S
O463        C473   1.280       .  A
O464       Ni471   1.918       .  S
O464        C474   1.280       .  A
O465       Ni471   1.916       .  S
O465        C475   1.280       .  A
O466       Ni471   1.909       .  S
O466        C476   1.280       .  A
O467       Ni472   1.922       .  S
O467        C476   1.282       .  A
O468       Ni472   1.916       .  S
O468        C475   1.281       .  A
O469       Ni472   1.923       .  S
O469        C474   1.282       .  A
O470       Ni472   1.927       .  S
O470        C473   1.282       .  A
Ni471      Ni472   2.391       .  S
C473       C1048   1.473       .  S
C474       C1403   1.467       .  S
C475        C984   1.465       .  S
C476       C1000   1.470       .  S
O477       Ni485   1.920       .  S
O477        C487   1.282       .  A
O478       Ni485   1.914       .  S
O478        C488   1.279       .  A
O479       Ni485   1.912       .  S
O479        C489   1.280       .  A
O480       Ni485   1.919       .  S
O480        C490   1.281       .  A
O481       Ni486   1.919       .  S
O481        C490   1.280       .  A
O482       Ni486   1.922       .  S
O482        C489   1.282       .  A
O483       Ni486   1.922       .  S
O483        C488   1.282       .  A
O484       Ni486   1.917       .  S
O484        C487   1.281       .  A
Ni485      Ni486   2.390       .  S
C487        C968   1.473       .  S
C488       C1787   1.466       .  S
C489       C1003   1.471       .  S
C490        C955   1.466       .  S
O491       Ni499   1.923       .  S
O491        C501   1.282       .  A
O492       Ni499   1.922       .  S
O492        C502   1.282       .  A
O493       Ni499   1.917       .  S
O493        C503   1.281       .  A
O494       Ni499   1.919       .  S
O494        C504   1.282       .  A
O495       Ni500   1.917       .  S
O495        C504   1.281       .  A
O496       Ni500   1.920       .  S
O496        C503   1.281       .  A
O497       Ni500   1.917       .  S
O497        C502   1.281       .  A
O498       Ni500   1.915       .  S
O498        C501   1.280       .  A
Ni499      Ni500   2.389       .  S
C501        C939   1.471       .  S
C502       C1032   1.474       .  S
C503        C971   1.473       .  S
C504       C1819   1.472       .  S
O505       Ni513   1.917       .  S
O505        C515   1.281       .  A
O506       Ni513   1.914       .  S
O506        C516   1.280       .  A
O507       Ni513   1.919       .  S
O507        C517   1.282       .  A
O508       Ni513   1.916       .  S
O508        C518   1.280       .  A
O509       Ni514   1.922       .  S
O509        C518   1.281       .  A
O510       Ni514   1.919       .  S
O510        C517   1.281       .  A
O511       Ni514   1.920       .  S
O511        C516   1.282       .  A
O512       Ni514   1.916       .  S
O512        C515   1.281       .  A
Ni513      Ni514   2.390       .  S
C515        C904   1.471       .  S
C516        C891   1.469       .  S
C517        C920   1.473       .  S
C518       C1896   1.464       .  S
O519       Ni527   1.919       .  S
O519        C529   1.281       .  A
O520       Ni527   1.923       .  S
O520        C530   1.283       .  A
O521       Ni527   1.925       .  S
O521        C531   1.282       .  A
O522       Ni527   1.920       .  S
O522        C532   1.281       .  A
O523       Ni528   1.915       .  S
O523        C532   1.281       .  A
O524       Ni528   1.910       .  S
O524        C531   1.279       .  A
O525       Ni528   1.912       .  S
O525        C530   1.280       .  A
O526       Ni528   1.918       .  S
O526        C529   1.281       .  A
Ni527      Ni528   2.390       .  S
C529        C856   1.468       .  S
C530        C872   1.472       .  S
C531       C1867   1.467       .  S
C532        C923   1.473       .  S
O533       Ni541   1.920       .  S
O533        C543   1.282       .  A
O534       Ni541   1.919       .  S
O534        C544   1.280       .  A
O535       Ni541   1.928       .  S
O535        C545   1.284       .  A
O536       Ni541   1.923       .  S
O536        C546   1.282       .  A
O537       Ni542   1.912       .  S
O537        C546   1.280       .  A
O538       Ni542   1.908       .  S
O538        C545   1.279       .  A
O539       Ni542   1.919       .  S
O539        C544   1.280       .  A
O540       Ni542   1.916       .  S
O540        C543   1.281       .  A
Ni541      Ni542   2.389       .  S
C543        C840   1.472       .  S
C544       C1627   1.464       .  S
C545        C824   1.472       .  S
C546        C875   1.472       .  S
O547       Ni555   1.920       .  S
O547        C557   1.281       .  A
O548       Ni555   1.923       .  S
O548        C558   1.283       .  A
O549       Ni555   1.915       .  S
O549        C559   1.280       .  A
O550       Ni555   1.921       .  S
O550        C560   1.281       .  A
O551       Ni556   1.917       .  S
O551        C560   1.281       .  A
O552       Ni556   1.923       .  S
O552        C559   1.283       .  A
O553       Ni556   1.914       .  S
O553        C558   1.280       .  A
O554       Ni556   1.923       .  S
O554        C557   1.282       .  A
Ni555      Ni556   2.389       .  S
C557        C808   1.470       .  S
C558        C907   1.472       .  S
C559        C843   1.473       .  S
C560       C1656   1.469       .  S
O561       Ni569   1.920       .  S
O561        C571   1.282       .  A
O562       Ni569   1.925       .  S
O562        C572   1.282       .  A
O563       Ni569   1.917       .  S
O563        C573   1.280       .  A
O564       Ni569   1.923       .  S
O564        C574   1.283       .  A
O565       Ni570   1.917       .  S
O565        C574   1.281       .  A
O566       Ni570   1.923       .  S
O566        C573   1.282       .  A
O567       Ni570   1.919       .  S
O567        C572   1.281       .  A
O568       Ni570   1.924       .  S
O568        C571   1.282       .  A
Ni569      Ni570   2.388       .  S
C571        C792   1.476       .  S
C572       C1275   1.470       .  S
C573       C1083   1.471       .  S
C574        C776   1.474       .  S
O575       Ni583   1.917       .  S
O575        C585   1.280       .  A
O576       Ni583   1.915       .  S
O576        C586   1.281       .  A
O577       Ni583   1.912       .  S
O577        C587   1.279       .  A
O578       Ni583   1.920       .  S
O578        C588   1.281       .  A
O579       Ni584   1.913       .  S
O579        C588   1.281       .  A
O580       Ni584   1.921       .  S
O580        C587   1.281       .  A
O581       Ni584   1.925       .  S
O581        C586   1.282       .  A
O582       Ni584   1.916       .  S
O582        C585   1.280       .  A
Ni583      Ni584   2.391       .  S
C585       C1192   1.462       .  S
C586        C795   1.476       .  S
C587        C888   1.461       .  S
C588        C763   1.471       .  S
O589       Ni597   1.926       .  S
O589        C599   1.282       .  A
O590       Ni597   1.919       .  S
O590        C600   1.282       .  A
O591       Ni597   1.915       .  S
O591        C601   1.280       .  A
O592       Ni597   1.919       .  S
O592        C602   1.282       .  A
O593       Ni598   1.916       .  S
O593        C602   1.280       .  A
O594       Ni598   1.920       .  S
O594        C601   1.281       .  A
O595       Ni598   1.919       .  S
O595        C600   1.281       .  A
O596       Ni598   1.916       .  S
O596        C599   1.280       .  A
Ni597      Ni598   2.389       .  S
C599        C811   1.472       .  S
C600        C760   1.473       .  S
C601       C1016   1.466       .  S
C602        C744   1.472       .  S
O603       Ni611   1.920       .  S
O603        C613   1.280       .  A
O604       Ni611   1.913       .  S
O604        C614   1.280       .  A
O605       Ni611   1.919       .  S
O605        C615   1.281       .  A
O606       Ni611   1.925       .  S
O606        C616   1.283       .  A
O607       Ni612   1.911       .  S
O607        C616   1.280       .  A
O608       Ni612   1.916       .  S
O608        C615   1.279       .  A
O609       Ni612   1.923       .  S
O609        C614   1.282       .  A
O610       Ni612   1.916       .  S
O610        C613   1.280       .  A
Ni611      Ni612   2.390       .  S
C613       C1147   1.464       .  S
C614        C779   1.473       .  S
C615        C936   1.463       .  S
C616        C747   1.472       .  S
O617       Ni625   1.924       .  S
O617        C627   1.282       .  A
O618       Ni625   1.914       .  S
O618        C628   1.281       .  A
O619       Ni625   1.911       .  S
O619        C629   1.280       .  A
O620       Ni625   1.919       .  S
O620        C630   1.281       .  A
O621       Ni626   1.916       .  S
O621        C630   1.280       .  A
O622       Ni626   1.921       .  S
O622        C629   1.282       .  A
O623       Ni626   1.924       .  S
O623        C628   1.282       .  A
O624       Ni626   1.918       .  S
O624        C627   1.281       .  A
Ni625      Ni626   2.391       .  S
C627       C1211   1.469       .  S
C628        C715   1.474       .  S
C629        C728   1.470       .  S
C630        C859   1.465       .  S
O631       Ni639   1.916       .  S
O631        C641   1.280       .  A
O632       Ni639   1.922       .  S
O632        C642   1.282       .  A
O633       Ni639   1.919       .  S
O633        C643   1.281       .  A
O634       Ni639   1.914       .  S
O634        C644   1.279       .  A
O635       Ni640   1.919       .  S
O635        C644   1.280       .  A
O636       Ni640   1.915       .  S
O636        C643   1.281       .  A
O637       Ni640   1.912       .  S
O637        C642   1.280       .  A
O638       Ni640   1.917       .  S
O638        C641   1.280       .  A
Ni639      Ni640   2.391       .  S
C641        C987   1.465       .  S
C642        C696   1.472       .  S
C643        C731   1.471       .  S
C644        C827   1.460       .  S
O645       Ni653   1.914       .  S
O645        C655   1.279       .  A
O646       Ni653   1.920       .  S
O646        C656   1.281       .  A
O647       Ni653   1.922       .  S
O647        C657   1.281       .  A
O648       Ni653   1.914       .  S
O648        C658   1.281       .  A
O649       Ni654   1.923       .  S
O649        C658   1.282       .  A
O650       Ni654   1.916       .  S
O650        C657   1.281       .  A
O651       Ni654   1.919       .  S
O651        C656   1.282       .  A
O652       Ni654   1.924       .  S
O652        C655   1.282       .  A
Ni653      Ni654   2.389       .  S
C655       C1115   1.465       .  S
C656        C680   1.474       .  S
C657        C952   1.470       .  S
C658        C699   1.474       .  S
O659       Ni667   1.921       .  S
O659        C669   1.282       .  A
O660       Ni667   1.917       .  S
O660        C670   1.280       .  A
O661       Ni667   1.916       .  S
O661        C671   1.281       .  A
O662       Ni667   1.921       .  S
O662        C672   1.281       .  A
O663       Ni668   1.915       .  S
O663        C672   1.280       .  A
O664       Ni668   1.923       .  S
O664        C671   1.282       .  A
O665       Ni668   1.923       .  S
O665        C670   1.281       .  A
O666       Ni668   1.919       .  S
O666        C669   1.281       .  A
Ni667      Ni668   2.389       .  S
C669        C712   1.475       .  S
C670       C1240   1.467       .  S
C671        C683   1.474       .  S
C672       C1064   1.466       .  S
C673        S679   1.708       .  A
C673        C678   1.387       .  A
C673        C674   1.402       .  A
C674        C675   1.403       .  A
C674        H685   1.083       .  S
C675        C684   1.370       .  A
C675        C676   1.387       .  A
C676        S682   1.709       .  A
C676        C677   1.402       .  A
C677        C678   1.403       .  A
C677        H686   1.083       .  S
C678        C681   1.371       .  A
S679        C680   1.724       .  A
C680        C681   1.387       .  A
C681        H687   1.083       .  S
S682        C683   1.724       .  A
C683        C684   1.388       .  A
C684        H688   1.083       .  S
C689        S695   1.703       .  A
C689        C694   1.387       .  A
C689        C690   1.399       .  A
C690        C691   1.400       .  A
C690        H701   1.083       .  S
C691        C700   1.368       .  A
C691        C692   1.387       .  A
C692        S698   1.711       .  A
C692        C693   1.404       .  A
C693        C694   1.405       .  A
C693        H702   1.083       .  S
C694        C697   1.373       .  A
S695        C696   1.722       .  A
C696        C697   1.388       .  A
C697        H703   1.083       .  S
S698        C699   1.725       .  A
C699        C700   1.386       .  A
C700        H704   1.083       .  S
C705        S711   1.709       .  A
C705        C710   1.387       .  A
C705        C706   1.404       .  A
C706        C707   1.404       .  A
C706        H717   1.084       .  S
C707        C716   1.373       .  A
C707        C708   1.387       .  A
C708        S714   1.705       .  A
C708        C709   1.400       .  A
C709        C710   1.401       .  A
C709        H718   1.084       .  S
C710        C713   1.370       .  A
S711        C712   1.725       .  A
C712        C713   1.386       .  A
C713        H719   1.083       .  S
S714        C715   1.723       .  A
C715        C716   1.388       .  A
C716        H720   1.083       .  S
C721        S727   1.704       .  A
C721        C726   1.387       .  A
C721        C722   1.400       .  A
C722        C723   1.401       .  A
C722        H733   1.083       .  S
C723        C732   1.369       .  A
C723        C724   1.387       .  A
C724        S730   1.707       .  A
C724        C725   1.402       .  A
C725        C726   1.402       .  A
C725        H734   1.083       .  S
C726        C729   1.371       .  A
S727        C728   1.723       .  A
C728        C729   1.386       .  A
C729        H735   1.083       .  S
S730        C731   1.723       .  A
C731        C732   1.386       .  A
C732        H736   1.083       .  S
C737        S743   1.708       .  A
C737        C742   1.387       .  A
C737        C738   1.403       .  A
C738        C739   1.403       .  A
C738        H749   1.083       .  S
C739        C748   1.372       .  A
C739        C740   1.387       .  A
C740        S746   1.704       .  A
C740        C741   1.400       .  A
C741        C742   1.401       .  A
C741        H750   1.083       .  S
C742        C745   1.369       .  A
S743        C744   1.724       .  A
C744        C745   1.386       .  A
C745        H751   1.083       .  S
S746        C747   1.723       .  A
C747        C748   1.387       .  A
C748        H752   1.083       .  S
C753        S759   1.707       .  A
C753        C758   1.387       .  A
C753        C754   1.400       .  A
C754        C755   1.402       .  A
C754        H765   1.083       .  S
C755        C764   1.368       .  A
C755        C756   1.387       .  A
C756        S762   1.709       .  A
C756        C757   1.402       .  A
C757        C758   1.403       .  A
C757        H766   1.083       .  S
C758        C761   1.370       .  A
S759        C760   1.723       .  A
C760        C761   1.387       .  A
C761        H767   1.083       .  S
S762        C763   1.724       .  A
C763        C764   1.386       .  A
C764        H768   1.083       .  S
C769        S775   1.708       .  A
C769        C774   1.387       .  A
C769        C770   1.401       .  A
C770        C771   1.402       .  A
C770        H781   1.082       .  S
C771        C780   1.369       .  A
C771        C772   1.387       .  A
C772        S778   1.710       .  A
C772        C773   1.402       .  A
C773        C774   1.404       .  A
C773        H782   1.083       .  S
C774        C777   1.371       .  A
S775        C776   1.724       .  A
C776        C777   1.387       .  A
C777        H783   1.083       .  S
S778        C779   1.723       .  A
C779        C780   1.387       .  A
C780        H784   1.083       .  S
C785        S791   1.707       .  A
C785        C790   1.387       .  A
C785        C786   1.401       .  A
C786        C787   1.402       .  A
C786        H797   1.083       .  S
C787        C796   1.370       .  A
C787        C788   1.386       .  A
C788        S794   1.711       .  A
C788        C789   1.404       .  A
C789        C790   1.405       .  A
C789        H798   1.083       .  S
C790        C793   1.374       .  A
S791        C792   1.723       .  A
C792        C793   1.389       .  A
C793        H799   1.083       .  S
S794        C795   1.725       .  A
C795        C796   1.387       .  A
C796        H800   1.083       .  S
C801        S807   1.711       .  A
C801        C806   1.387       .  A
C801        C802   1.405       .  A
C802        C803   1.405       .  A
C802        H813   1.082       .  S
C803        C812   1.375       .  A
C803        C804   1.387       .  A
C804        S810   1.707       .  A
C804        C805   1.402       .  A
C805        C806   1.402       .  A
C805        H814   1.082       .  S
C806        C809   1.372       .  A
S807        C808   1.723       .  A
C808        C809   1.385       .  A
C809        H815   1.083       .  S
S810        C811   1.722       .  A
C811        C812   1.388       .  A
C812        H816   1.082       .  S
C817        S823   1.704       .  A
C817        C822   1.387       .  A
C817        C818   1.401       .  A
C818        C819   1.401       .  A
C818        H829   1.081       .  S
C819        C828   1.371       .  A
C819        C820   1.388       .  A
C820        S826   1.707       .  A
C820        C821   1.402       .  A
C821        C822   1.403       .  A
C821        H830   1.081       .  S
C822        C825   1.373       .  A
S823        C824   1.724       .  A
C824        C825   1.386       .  A
C825        H831   1.082       .  S
S826        C827   1.719       .  A
C827        C828   1.383       .  A
C828        H832   1.082       .  S
C833        S839   1.705       .  A
C833        C838   1.387       .  A
C833        C834   1.401   1_556  A
C834        C835   1.402       .  A
C834        H845   1.083       .  S
C835        C844   1.371       .  A
C835        C836   1.387       .  A
C836        S842   1.707       .  A
C836        C837   1.403   1_554  A
C837        C838   1.403       .  A
C837        H846   1.083       .  S
C838        C841   1.372       .  A
S839        C840   1.723       .  A
C840        C841   1.388       .  A
C841        H847   1.083       .  S
S842        C843   1.724       .  A
C843        C844   1.387       .  A
C844        H848   1.083       .  S
C849        S855   1.709       .  A
C849        C854   1.387       .  A
C849        C850   1.402       .  A
C850        C851   1.403       .  A
C850        H861   1.082       .  S
C851        C860   1.371       .  A
C851        C852   1.388       .  A
C852        S858   1.708       .  A
C852        C853   1.401       .  A
C853        C854   1.402       .  A
C853        H862   1.082       .  S
C854        C857   1.370       .  A
S855        C856   1.722       .  A
C856        C857   1.385       .  A
C857        H863   1.083       .  S
S858        C859   1.720       .  A
C859        C860   1.385       .  A
C860        H864   1.082       .  S
C865        S871   1.705       .  A
C865        C870   1.387       .  A
C865        C866   1.402       .  A
C866        C867   1.402   1_455  A
C866        H877   1.083   1_455  S
C867        C876   1.372       .  A
C867        C868   1.387       .  A
C868        S874   1.705       .  A
C868        C869   1.401   1_655  A
C869        C870   1.402       .  A
C869        H878   1.083       .  S
C870        C873   1.371       .  A
S871        C872   1.724       .  A
C872        C873   1.386       .  A
C873        H879   1.083       .  S
S874        C875   1.723       .  A
C875        C876   1.387       .  A
C876        H880   1.083       .  S
C881        S887   1.710       .  A
C881        C886   1.388       .  A
C881        C882   1.402       .  A
C882        C883   1.404       .  A
C882        H893   1.081       .  S
C883        C892   1.370       .  A
C883        C884   1.387       .  A
C884        S890   1.706       .  A
C884        C885   1.399       .  A
C885        C886   1.401       .  A
C885        H894   1.081       .  S
C886        C889   1.367       .  A
S887        C888   1.721       .  A
C888        C889   1.382       .  A
C889        H895   1.082       .  S
S890        C891   1.721       .  A
C891        C892   1.387       .  A
C892        H896   1.082       .  S
C897        S903   1.706       .  A
C897        C902   1.387       .  A
C897        C898   1.401   1_455  A
C898        C899   1.402       .  A
C898        H909   1.082       .  S
C899        C908   1.370       .  A
C899        C900   1.387       .  A
C900        S906   1.707       .  A
C900        C901   1.402       .  A
C901        C902   1.403   1_655  A
C901        H910   1.082       .  S
C902        C905   1.370       .  A
S903        C904   1.723       .  A
C904        C905   1.387       .  A
C905        H911   1.083       .  S
S906        C907   1.724       .  A
C907        C908   1.386       .  A
C908        H912   1.083       .  S
C913        S919   1.706       .  A
C913        C918   1.387       .  A
C913        C914   1.400       .  A
C914        C915   1.401   1_554  A
C914        H925   1.083   1_554  S
C915        C924   1.369       .  A
C915        C916   1.387       .  A
C916        S922   1.710       .  A
C916        C917   1.403   1_556  A
C917        C918   1.404       .  A
C917        H926   1.083       .  S
C918        C921   1.372       .  A
S919        C920   1.723       .  A
C920        C921   1.388       .  A
C921        H927   1.083       .  S
S922        C923   1.724       .  A
C923        C924   1.386       .  A
C924        H928   1.083       .  S
C929        S935   1.709       .  A
C929        C934   1.388       .  A
C929        C930   1.403       .  A
C930        C931   1.403       .  A
C930        H941   1.081       .  S
C931        C940   1.372       .  A
C931        C932   1.387       .  A
C932        S938   1.706       .  A
C932        C933   1.401       .  A
C933        C934   1.402       .  A
C933        H942   1.081       .  S
C934        C937   1.370       .  A
S935        C936   1.720       .  A
C936        C937   1.383       .  A
C937        H943   1.082       .  S
S938        C939   1.723       .  A
C939        C940   1.387       .  A
C940        H944   1.082       .  S
C945        S951   1.709       .  A
C945        C950   1.387       .  A
C945        C946   1.403       .  A
C946        C947   1.404       .  A
C946        H957   1.082       .  S
C947        C956   1.372       .  A
C947        C948   1.388       .  A
C948        S954   1.707       .  A
C948        C949   1.401       .  A
C949        C950   1.402       .  A
C949        H958   1.082       .  S
C950        C953   1.370       .  A
S951        C952   1.723       .  A
C952        C953   1.385       .  A
C953        H959   1.083       .  S
S954        C955   1.720       .  A
C955        C956   1.385       .  A
C956        H960   1.083       .  S
C961        S967   1.707       .  A
C961        C966   1.387       .  A
C961        C962   1.402   1_556  A
C962        C963   1.402       .  A
C962        H973   1.083       .  S
C963        C972   1.370       .  A
C963        C964   1.387       .  A
C964        S970   1.708       .  A
C964        C965   1.402   1_554  A
C965        C966   1.403       .  A
C965        H974   1.083       .  S
C966        C969   1.371       .  A
S967        C968   1.724       .  A
C968        C969   1.387       .  A
C969        H975   1.083       .  S
S970        C971   1.724       .  A
C971        C972   1.387       .  A
C972        H976   1.083       .  S
C977        S983   1.707       .  A
C977        C982   1.388       .  A
C977        C978   1.402       .  A
C978        C979   1.403       .  A
C978        H989   1.081       .  S
C979        C988   1.371       .  A
C979        C980   1.388       .  A
C980        S986   1.705       .  A
C980        C981   1.400       .  A
C981        C982   1.401       .  A
C981        H990   1.081       .  S
C982        C985   1.369       .  A
S983        C984   1.722       .  A
C984        C985   1.384       .  A
C985        H991   1.082       .  S
S986        C987   1.720       .  A
C987        C988   1.385       .  A
C988        H992   1.082       .  S
C993        S999   1.710       .  A
C993        C998   1.387       .  A
C993        C994   1.403   1_565  A
C994        C995   1.404       .  A
C994       H1005   1.083       .  S
C995       C1004   1.371       .  A
C995        C996   1.387       .  A
C996       S1002   1.704       .  A
C996        C997   1.398   1_545  A
C997        C998   1.400       .  A
C997       H1006   1.083       .  S
C998       C1001   1.366       .  A
S999       C1000   1.724       .  A
C1000      C1001   1.385       .  A
C1001      H1007   1.083       .  S
S1002      C1003   1.722       .  A
C1003      C1004   1.387       .  A
C1004      H1008   1.083       .  S
C1009      S1015   1.708       .  A
C1009      C1014   1.387       .  A
C1009      C1010   1.401       .  A
C1010      C1011   1.402       .  A
C1010      H1021   1.082       .  S
C1011      C1020   1.371       .  A
C1011      C1012   1.387       .  A
C1012      S1018   1.708       .  A
C1012      C1013   1.402       .  A
C1013      C1014   1.403       .  A
C1013      H1022   1.081       .  S
C1014      C1017   1.370       .  A
S1015      C1016   1.720       .  A
C1016      C1017   1.385       .  A
C1017      H1023   1.082       .  S
S1018      C1019   1.723       .  A
C1019      C1020   1.385       .  A
C1020      H1024   1.082       .  S
C1025      S1031   1.706       .  A
C1025      C1030   1.387       .  A
C1025      C1026   1.401       .  A
C1026      C1027   1.402   1_545  A
C1026      H1037   1.083   1_545  S
C1027      C1036   1.371       .  A
C1027      C1028   1.387       .  A
C1028      S1034   1.708       .  A
C1028      C1029   1.403   1_565  A
C1029      C1030   1.404       .  A
C1029      H1038   1.083       .  S
C1030      C1033   1.373       .  A
S1031      C1032   1.724       .  A
C1032      C1033   1.388       .  A
C1033      H1039   1.083       .  S
S1034      C1035   1.724       .  A
C1035      C1036   1.387       .  A
C1036      H1040   1.083       .  S
C1041      S1047   1.714       .  A
C1041      C1046   1.386       .  A
C1041      C1042   1.405   1_556  A
C1042      C1043   1.406       .  A
C1042      H1053   1.083       .  S
C1043      C1052   1.373       .  A
C1043      C1044   1.387       .  A
C1044      S1050   1.704       .  A
C1044      C1045   1.398   1_554  A
C1045      C1046   1.399       .  A
C1045      H1054   1.083       .  S
C1046      C1049   1.365       .  A
S1047      C1048   1.726       .  A
C1048      C1049   1.385       .  A
C1049      H1055   1.083       .  S
S1050      C1051   1.722       .  A
C1051      C1052   1.389       .  A
C1052      H1056   1.083       .  S
C1057      S1063   1.706       .  A
C1057      C1062   1.388       .  A
C1057      C1058   1.401       .  A
C1058      C1059   1.401       .  A
C1058      H1069   1.082       .  S
C1059      C1068   1.369       .  A
C1059      C1060   1.387       .  A
C1060      S1066   1.709       .  A
C1060      C1061   1.403       .  A
C1061      C1062   1.404       .  A
C1061      H1070   1.082       .  S
C1062      C1065   1.372       .  A
S1063      C1064   1.720       .  A
C1064      C1065   1.385       .  A
C1065      H1071   1.082       .  S
S1066      C1067   1.723       .  A
C1067      C1068   1.385       .  A
C1068      H1072   1.082       .  S
C1073      S1079   1.709       .  A
C1073      C1078   1.387       .  A
C1073      C1074   1.402       .  A
C1074      C1075   1.403       .  A
C1074      H1085   1.081       .  S
C1075      C1084   1.371       .  A
C1075      C1076   1.387       .  A
C1076      S1082   1.709       .  A
C1076      C1077   1.403       .  A
C1077      C1078   1.404       .  A
C1077      H1086   1.081       .  S
C1078      C1081   1.372       .  A
S1079      C1080   1.721       .  A
C1080      C1081   1.386       .  A
C1081      H1087   1.082       .  S
S1082      C1083   1.723       .  A
C1083      C1084   1.386       .  A
C1084      H1088   1.082       .  S
C1089      S1095   1.707       .  A
C1089      C1094   1.387       .  A
C1089      C1090   1.402       .  A
C1090      C1091   1.403   1_554  A
C1090      H1101   1.082       .  S
C1091      C1100   1.372       .  A
C1091      C1092   1.387       .  A
C1092      S1098   1.705       .  A
C1092      C1093   1.401   1_556  A
C1093      C1094   1.402       .  A
C1093      H1102   1.083       .  S
C1094      C1097   1.371       .  A
S1095      C1096   1.724       .  A
C1096      C1097   1.386       .  A
C1097      H1103   1.083       .  S
S1098      C1099   1.723       .  A
C1099      C1100   1.387       .  A
C1100      H1104   1.083       .  S
C1105      S1111   1.710       .  A
C1105      C1110   1.387       .  A
C1105      C1106   1.405       .  A
C1106      C1107   1.405       .  A
C1106      H1117   1.080       .  S
C1107      C1116   1.374       .  A
C1107      C1108   1.388       .  A
C1108      S1114   1.706       .  A
C1108      C1109   1.400       .  A
C1109      C1110   1.401       .  A
C1109      H1118   1.080       .  S
C1110      C1113   1.370       .  A
S1111      C1112   1.724       .  A
C1112      C1113   1.386       .  A
C1113      H1119   1.081       .  S
S1114      C1115   1.719       .  A
C1115      C1116   1.386       .  A
C1116      H1120   1.082       .  S
C1121      S1127   1.706       .  A
C1121      C1126   1.387       .  A
C1121      C1122   1.402   1_655  A
C1122      C1123   1.402       .  A
C1122      H1133   1.083       .  S
C1123      C1132   1.372       .  A
C1123      C1124   1.387       .  A
C1124      S1130   1.706       .  A
C1124      C1125   1.403   1_455  A
C1125      C1126   1.403       .  A
C1125      H1134   1.083       .  S
C1126      C1129   1.373       .  A
S1127      C1128   1.724       .  A
C1128      C1129   1.387       .  A
C1129      H1135   1.083       .  S
S1130      C1131   1.724       .  A
C1131      C1132   1.387       .  A
C1132      H1136   1.083       .  S
C1137      S1143   1.704       .  A
C1137      C1142   1.387       .  A
C1137      C1138   1.399       .  A
C1138      C1139   1.400       .  A
C1138      H1149   1.080       .  S
C1139      C1148   1.368       .  A
C1139      C1140   1.388       .  A
C1140      S1146   1.710       .  A
C1140      C1141   1.404       .  A
C1141      C1142   1.405       .  A
C1141      H1150   1.079       .  S
C1142      C1145   1.373       .  A
S1143      C1144   1.720       .  A
C1144      C1145   1.388       .  A
C1145      H1151   1.081       .  S
S1146      C1147   1.722       .  A
C1147      C1148   1.382       .  A
C1148      H1152   1.082       .  S
C1153      S1159   1.709       .  A
C1153      C1158   1.386       .  A
C1153      C1154   1.403   1_655  A
C1154      C1155   1.404       .  A
C1154      H1165   1.083       .  S
C1155      C1164   1.372       .  A
C1155      C1156   1.387       .  A
C1156      S1162   1.709       .  A
C1156      C1157   1.402   1_455  A
C1157      C1158   1.403       .  A
C1157      H1166   1.083       .  S
C1158      C1161   1.371       .  A
S1159      C1160   1.723       .  A
C1160      C1161   1.388       .  A
C1161      H1167   1.083       .  S
S1162      C1163   1.724       .  A
C1163      C1164   1.388       .  A
C1164      H1168   1.083       .  S
C1169      S1175   1.713       .  A
C1169      C1174   1.386       .  A
C1169      C1170   1.404       .  A
C1170      C1171   1.406   1_556  A
C1170      H1181   1.083       .  S
C1171      C1180   1.372       .  A
C1171      C1172   1.387       .  A
C1172      S1178   1.705       .  A
C1172      C1173   1.398   1_554  A
C1173      C1174   1.400       .  A
C1173      H1182   1.083       .  S
C1174      C1177   1.366       .  A
S1175      C1176   1.724       .  A
C1176      C1177   1.386       .  A
C1177      H1183   1.083       .  S
S1178      C1179   1.721       .  A
C1179      C1180   1.388       .  A
C1180      H1184   1.083       .  S
C1185      S1191   1.707       .  A
C1185      C1190   1.388       .  A
C1185      C1186   1.400       .  A
C1186      C1187   1.401       .  A
C1186      H1197   1.082       .  S
C1187      C1196   1.368       .  A
C1187      C1188   1.387       .  A
C1188      S1194   1.707       .  A
C1188      C1189   1.401       .  A
C1189      C1190   1.402       .  A
C1189      H1198   1.082       .  S
C1190      C1193   1.369       .  A
S1191      C1192   1.719       .  A
C1192      C1193   1.384       .  A
C1193      H1199   1.083       .  S
S1194      C1195   1.722       .  A
C1195      C1196   1.384       .  A
C1196      H1200   1.082       .  S
C1201      S1207   1.714       .  A
C1201      C1206   1.387       .  A
C1201      C1202   1.406       .  A
C1202      C1203   1.407       .  A
C1202      H1213   1.082       .  S
C1203      C1212   1.374       .  A
C1203      C1204   1.387       .  A
C1204      S1210   1.707       .  A
C1204      C1205   1.400       .  A
C1205      C1206   1.401       .  A
C1205      H1214   1.082       .  S
C1206      C1209   1.369       .  A
S1207      C1208   1.724       .  A
C1208      C1209   1.385       .  A
C1209      H1215   1.083       .  S
S1210      C1211   1.720       .  A
C1211      C1212   1.388       .  A
C1212      H1216   1.082       .  S
C1217      S1223   1.707       .  A
C1217      C1222   1.387       .  A
C1217      C1218   1.402   1_556  A
C1218      C1219   1.402       .  A
C1218      H1229   1.083       .  S
C1219      C1228   1.371       .  A
C1219      C1220   1.387       .  A
C1220      S1226   1.707       .  A
C1220      C1221   1.403       .  A
C1221      C1222   1.403   1_554  A
C1221      H1230   1.083       .  S
C1222      C1225   1.372       .  A
S1223      C1224   1.724       .  A
C1224      C1225   1.388       .  A
C1225      H1231   1.083       .  S
S1226      C1227   1.725       .  A
C1227      C1228   1.386       .  A
C1228      H1232   1.083       .  S
C1233      S1239   1.708       .  A
C1233      C1238   1.387       .  A
C1233      C1234   1.402       .  A
C1234      C1235   1.402       .  A
C1234      H1245   1.082       .  S
C1235      C1244   1.371       .  A
C1235      C1236   1.387       .  A
C1236      S1242   1.710       .  A
C1236      C1237   1.404       .  A
C1237      C1238   1.404       .  A
C1237      H1246   1.082       .  S
C1238      C1241   1.373       .  A
S1239      C1240   1.720       .  A
C1240      C1241   1.386       .  A
C1241      H1247   1.082       .  S
S1242      C1243   1.724       .  A
C1243      C1244   1.386       .  A
C1244      H1248   1.082       .  S
C1249      S1255   1.708       .  A
C1249      C1254   1.387       .  A
C1249      C1250   1.402   1_565  A
C1250      C1251   1.403       .  A
C1250      H1261   1.083       .  S
C1251      C1260   1.372       .  A
C1251      C1252   1.386       .  A
C1252      S1258   1.710       .  A
C1252      C1253   1.404   1_545  A
C1253      C1254   1.405       .  A
C1253      H1262   1.083       .  S
C1254      C1257   1.374       .  A
S1255      C1256   1.724       .  A
C1256      C1257   1.389       .  A
C1257      H1263   1.083       .  S
S1258      C1259   1.725       .  A
C1259      C1260   1.388       .  A
C1260      H1264   1.083       .  S
C1265      S1271   1.709       .  A
C1265      C1270   1.387       .  A
C1265      C1266   1.404       .  A
C1266      C1267   1.404       .  A
C1266      H1277   1.082       .  S
C1267      C1276   1.375       .  A
C1267      C1268   1.387       .  A
C1268      S1274   1.708       .  A
C1268      C1269   1.403       .  A
C1269      C1270   1.403       .  A
C1269      H1278   1.082       .  S
C1270      C1273   1.374       .  A
S1271      C1272   1.724       .  A
C1272      C1273   1.387       .  A
C1273      H1279   1.083       .  S
S1274      C1275   1.721       .  A
C1275      C1276   1.386       .  A
C1276      H1280   1.082       .  S
C1281      S1287   1.708       .  A
C1281      C1286   1.387       .  A
C1281      C1282   1.402   1_565  A
C1282      C1283   1.403       .  A
C1282      H1293   1.083       .  S
C1283      C1292   1.371       .  A
C1283      C1284   1.387       .  A
C1284      S1290   1.706       .  A
C1284      C1285   1.401       .  A
C1285      C1286   1.402   1_545  A
C1285      H1294   1.083       .  S
C1286      C1289   1.369       .  A
S1287      C1288   1.723       .  A
C1288      C1289   1.386       .  A
C1289      H1295   1.083       .  S
S1290      C1291   1.723       .  A
C1291      C1292   1.387       .  A
C1292      H1296   1.083       .  S
C1297      S1303   1.705       .  A
C1297      C1302   1.387       .  A
C1297      C1298   1.400       .  A
C1298      C1299   1.401   1_556  A
C1298      H1309   1.083   1_556  S
C1299      C1308   1.369       .  A
C1299      C1300   1.387       .  A
C1300      S1306   1.709       .  A
C1300      C1301   1.404   1_554  A
C1301      C1302   1.404       .  A
C1301      H1310   1.083       .  S
C1302      C1305   1.373       .  A
S1303      C1304   1.722       .  A
C1304      C1305   1.388       .  A
C1305      H1311   1.083       .  S
S1306      C1307   1.725       .  A
C1307      C1308   1.386       .  A
C1308      H1312   1.083       .  S
C1313      S1319   1.709       .  A
C1313      C1318   1.387       .  A
C1313      C1314   1.404   1_545  A
C1314      C1315   1.404       .  A
C1314      H1325   1.083       .  S
C1315      C1324   1.373       .  A
C1315      C1316   1.387       .  A
C1316      S1322   1.706       .  A
C1316      C1317   1.401   1_565  A
C1317      C1318   1.402       .  A
C1317      H1326   1.083       .  S
C1318      C1321   1.370       .  A
S1319      C1320   1.725       .  A
C1320      C1321   1.387       .  A
C1321      H1327   1.083       .  S
S1322      C1323   1.723       .  A
C1323      C1324   1.389       .  A
C1324      H1328   1.083       .  S
C1329      S1335   1.709       .  A
C1329      C1334   1.387       .  A
C1329      C1330   1.405   1_455  A
C1330      C1331   1.405       .  A
C1330      H1341   1.083       .  S
C1331      C1340   1.376       .  A
C1331      C1332   1.387       .  A
C1332      S1338   1.704       .  A
C1332      C1333   1.401   1_655  A
C1333      C1334   1.401       .  A
C1333      H1342   1.083       .  S
C1334      C1337   1.372       .  A
S1335      C1336   1.726       .  A
C1336      C1337   1.387       .  A
C1337      H1343   1.083       .  S
S1338      C1339   1.724       .  A
C1339      C1340   1.389       .  A
C1340      H1344   1.083       .  S
C1345      S1351   1.704       .  A
C1345      C1350   1.387       .  A
C1345      C1346   1.398       .  A
C1346      C1347   1.400   1_455  A
C1346      H1357   1.083       .  S
C1347      C1356   1.367       .  A
C1347      C1348   1.387       .  A
C1348      S1354   1.711       .  A
C1348      C1349   1.404   1_655  A
C1349      C1350   1.405       .  A
C1349      H1358   1.083       .  S
C1350      C1353   1.372       .  A
S1351      C1352   1.721       .  A
C1352      C1353   1.389       .  A
C1353      H1359   1.083       .  S
S1354      C1355   1.725       .  A
C1355      C1356   1.385       .  A
C1356      H1360   1.083       .  S
C1361      S1367   1.708       .  A
C1361      C1366   1.387       .  A
C1361      C1362   1.401   1_565  A
C1362      C1363   1.403       .  A
C1362      H1373   1.083       .  S
C1363      C1372   1.370       .  A
C1363      C1364   1.386       .  A
C1364      S1370   1.711       .  A
C1364      C1365   1.403   1_545  A
C1365      C1366   1.404       .  A
C1365      H1374   1.083       .  S
C1366      C1369   1.372       .  A
S1367      C1368   1.724       .  A
C1368      C1369   1.388       .  A
C1369      H1375   1.083       .  S
S1370      C1371   1.724       .  A
C1371      C1372   1.387       .  A
C1372      H1376   1.083       .  S
C1377      S1383   1.710       .  A
C1377      C1382   1.387       .  A
C1377      C1378   1.402       .  A
C1378      C1379   1.404       .  A
C1378      H1389   1.081       .  S
C1379      C1388   1.371       .  A
C1379      C1380   1.387       .  A
C1380      S1386   1.710       .  A
C1380      C1381   1.402       .  A
C1381      C1382   1.404       .  A
C1381      H1390   1.081       .  S
C1382      C1385   1.370       .  A
S1383      C1384   1.722       .  A
C1384      C1385   1.387       .  A
C1385      H1391   1.082       .  S
S1386      C1387   1.720       .  A
C1387      C1388   1.385       .  A
C1388      H1392   1.082       .  S
C1393      S1399   1.709       .  A
C1393      C1398   1.387       .  A
C1393      C1394   1.402       .  A
C1394      C1395   1.403       .  A
C1394      H1405   1.082       .  S
C1395      C1404   1.372       .  A
C1395      C1396   1.387       .  A
C1396      S1402   1.709       .  A
C1396      C1397   1.403       .  A
C1397      C1398   1.404       .  A
C1397      H1406   1.082       .  S
C1398      C1401   1.372       .  A
S1399      C1400   1.722       .  A
C1400      C1401   1.388       .  A
C1401      H1407   1.082       .  S
S1402      C1403   1.722       .  A
C1403      C1404   1.384       .  A
C1404      H1408   1.082       .  S
C1409      S1415   1.706       .  A
C1409      C1414   1.387       .  A
C1409      C1410   1.400       .  A
C1410      C1411   1.401       .  A
C1410      H1421   1.080       .  S
C1411      C1420   1.369       .  A
C1411      C1412   1.387       .  A
C1412      S1418   1.710       .  A
C1412      C1413   1.404       .  A
C1413      C1414   1.404       .  A
C1413      H1422   1.080       .  S
C1414      C1417   1.372       .  A
S1415      C1416   1.720       .  A
C1416      C1417   1.386       .  A
C1417      H1423   1.081       .  S
S1418      C1419   1.723       .  A
C1419      C1420   1.385       .  A
C1420      H1424   1.081       .  S
C1425      S1431   1.708       .  A
C1425      C1430   1.387       .  A
C1425      C1426   1.403       .  A
C1426      C1427   1.403       .  A
C1426      H1437   1.083       .  S
C1427      C1436   1.373       .  A
C1427      C1428   1.387       .  A
C1428      S1434   1.705       .  A
C1428      C1429   1.401       .  A
C1429      C1430   1.402       .  A
C1429      H1438   1.083       .  S
C1430      C1433   1.371       .  A
S1431      C1432   1.724       .  A
C1432      C1433   1.387       .  A
C1433      H1439   1.083       .  S
S1434      C1435   1.723       .  A
C1435      C1436   1.388       .  A
C1436      H1440   1.083       .  S
C1441      S1447   1.705       .  A
C1441      C1446   1.387       .  A
C1441      C1442   1.401       .  A
C1442      C1443   1.401       .  A
C1442      H1453   1.080       .  S
C1443      C1452   1.370       .  A
C1443      C1444   1.387       .  A
C1444      S1450   1.711       .  A
C1444      C1445   1.404       .  A
C1445      C1446   1.405       .  A
C1445      H1454   1.080       .  S
C1446      C1449   1.374       .  A
S1447      C1448   1.722       .  A
C1448      C1449   1.387       .  A
C1449      H1455   1.081       .  S
S1450      C1451   1.722       .  A
C1451      C1452   1.384       .  A
C1452      H1456   1.081       .  S
C1457      S1463   1.710       .  A
C1457      C1462   1.387       .  A
C1457      C1458   1.403       .  A
C1458      C1459   1.404       .  A
C1458      H1469   1.081       .  S
C1459      C1468   1.372       .  A
C1459      C1460   1.387       .  A
C1460      S1466   1.710       .  A
C1460      C1461   1.402       .  A
C1461      C1462   1.403       .  A
C1461      H1470   1.081       .  S
C1462      C1465   1.371       .  A
S1463      C1464   1.723       .  A
C1464      C1465   1.387       .  A
C1465      H1471   1.082       .  S
S1466      C1467   1.721       .  A
C1467      C1468   1.385       .  A
C1468      H1472   1.082       .  S
C1473      S1479   1.704       .  A
C1473      C1478   1.387       .  A
C1473      C1474   1.401       .  A
C1474      C1475   1.401       .  A
C1474      H1485   1.083       .  S
C1475      C1484   1.371       .  A
C1475      C1476   1.387       .  A
C1476      S1482   1.708       .  A
C1476      C1477   1.404       .  A
C1477      C1478   1.404       .  A
C1477      H1486   1.083       .  S
C1478      C1481   1.374       .  A
S1479      C1480   1.723       .  A
C1480      C1481   1.388       .  A
C1481      H1487   1.083       .  S
S1482      C1483   1.725       .  A
C1483      C1484   1.386       .  A
C1484      H1488   1.083       .  S
C1489      S1495   1.705       .  A
C1489      C1494   1.387       .  A
C1489      C1490   1.401       .  A
C1490      C1491   1.402       .  A
C1490      H1501   1.081       .  S
C1491      C1500   1.371       .  A
C1491      C1492   1.388       .  A
C1492      S1498   1.707       .  A
C1492      C1493   1.402       .  A
C1493      C1494   1.403       .  A
C1493      H1502   1.081       .  S
C1494      C1497   1.372       .  A
S1495      C1496   1.721       .  A
C1496      C1497   1.385       .  A
C1497      H1503   1.082       .  S
S1498      C1499   1.721       .  A
C1499      C1500   1.384       .  A
C1500      H1504   1.082       .  S
C1505      S1511   1.708       .  A
C1505      C1510   1.387       .  A
C1505      C1506   1.403       .  A
C1506      C1507   1.404       .  A
C1506      H1517   1.083       .  S
C1507      C1516   1.373       .  A
C1507      C1508   1.387       .  A
C1508      S1514   1.703       .  A
C1508      C1509   1.400       .  A
C1509      C1510   1.401       .  A
C1509      H1518   1.083       .  S
C1510      C1513   1.369       .  A
S1511      C1512   1.724       .  A
C1512      C1513   1.386       .  A
C1513      H1519   1.083       .  S
S1514      C1515   1.723       .  A
C1515      C1516   1.388       .  A
C1516      H1520   1.083       .  S
C1521      S1527   1.710       .  A
C1521      C1526   1.387       .  A
C1521      C1522   1.403       .  A
C1522      C1523   1.404       .  A
C1522      H1533   1.083       .  S
C1523      C1532   1.371       .  A
C1523      C1524   1.387       .  A
C1524      S1530   1.707       .  A
C1524      C1525   1.400       .  A
C1525      C1526   1.401       .  A
C1525      H1534   1.083       .  S
C1526      C1529   1.369       .  A
S1527      C1528   1.725       .  A
C1528      C1529   1.386       .  A
C1529      H1535   1.083       .  S
S1530      C1531   1.722       .  A
C1531      C1532   1.388       .  A
C1532      H1536   1.083       .  S
C1537      S1543   1.713       .  A
C1537      C1542   1.387       .  A
C1537      C1538   1.407       .  A
C1538      C1539   1.407       .  A
C1538      H1549   1.082       .  S
C1539      C1548   1.377       .  A
C1539      C1540   1.387       .  A
C1540      S1546   1.705       .  A
C1540      C1541   1.400       .  A
C1541      C1542   1.401       .  A
C1541      H1550   1.082       .  S
C1542      C1545   1.371       .  A
S1543      C1544   1.725       .  A
C1544      C1545   1.384       .  A
C1545      H1551   1.082       .  S
S1546      C1547   1.721       .  A
C1547      C1548   1.389       .  A
C1548      H1552   1.082       .  S
C1553      S1559   1.707       .  A
C1553      C1558   1.387       .  A
C1553      C1554   1.402       .  A
C1554      C1555   1.402       .  A
C1554      H1565   1.082       .  S
C1555      C1564   1.371       .  A
C1555      C1556   1.387       .  A
C1556      S1562   1.708       .  A
C1556      C1557   1.402       .  A
C1557      C1558   1.403       .  A
C1557      H1566   1.082       .  S
C1558      C1561   1.372       .  A
S1559      C1560   1.723       .  A
C1560      C1561   1.386       .  A
C1561      H1567   1.082       .  S
S1562      C1563   1.721       .  A
C1563      C1564   1.385       .  A
C1564      H1568   1.083       .  S
C1569      S1575   1.705       .  A
C1569      C1574   1.388       .  A
C1569      C1570   1.398       .  A
C1570      C1571   1.400       .  A
C1570      H1581   1.081       .  S
C1571      C1580   1.366       .  A
C1571      C1572   1.387       .  A
C1572      S1578   1.710       .  A
C1572      C1573   1.403       .  A
C1573      C1574   1.404       .  A
C1573      H1582   1.081       .  S
C1574      C1577   1.370       .  A
S1575      C1576   1.718       .  A
C1576      C1577   1.385       .  A
C1577      H1583   1.082       .  S
S1578      C1579   1.723       .  A
C1579      C1580   1.383       .  A
C1580      H1584   1.082       .  S
C1585      S1591   1.710       .  A
C1585      C1590   1.386       .  A
C1585      C1586   1.403       .  A
C1586      C1587   1.404       .  A
C1586      H1597   1.083       .  S
C1587      C1596   1.372       .  A
C1587      C1588   1.386       .  A
C1588      S1594   1.710       .  A
C1588      C1589   1.403       .  A
C1589      C1590   1.404       .  A
C1589      H1598   1.083       .  S
C1590      C1593   1.372       .  A
S1591      C1592   1.724       .  A
C1592      C1593   1.388       .  A
C1593      H1599   1.083       .  S
S1594      C1595   1.725       .  A
C1595      C1596   1.389       .  A
C1596      H1600   1.083       .  S
C1601      S1607   1.707       .  A
C1601      C1606   1.387       .  A
C1601      C1602   1.400       .  A
C1602      C1603   1.401       .  A
C1602      H1613   1.082       .  S
C1603      C1612   1.369       .  A
C1603      C1604   1.387       .  A
C1604      S1610   1.712       .  A
C1604      C1605   1.404       .  A
C1605      C1606   1.405       .  A
C1605      H1614   1.082       .  S
C1606      C1609   1.373       .  A
S1607      C1608   1.720       .  A
C1608      C1609   1.387       .  A
C1609      H1615   1.082       .  S
S1610      C1611   1.724       .  A
C1611      C1612   1.385       .  A
C1612      H1616   1.082       .  S
C1617      S1623   1.710       .  A
C1617      C1622   1.387       .  A
C1617      C1618   1.403       .  A
C1618      C1619   1.404       .  A
C1618      H1629   1.081       .  S
C1619      C1628   1.371       .  A
C1619      C1620   1.388       .  A
C1620      S1626   1.707       .  A
C1620      C1621   1.400       .  A
C1621      C1622   1.402       .  A
C1621      H1630   1.081       .  S
C1622      C1625   1.369       .  A
S1623      C1624   1.723       .  A
C1624      C1625   1.385       .  A
C1625      H1631   1.082       .  S
S1626      C1627   1.719       .  A
C1627      C1628   1.385       .  A
C1628      H1632   1.082       .  S
C1633      S1639   1.707       .  A
C1633      C1638   1.387       .  A
C1633      C1634   1.402       .  A
C1634      C1635   1.403       .  A
C1634      H1645   1.083       .  S
C1635      C1644   1.372       .  A
C1635      C1636   1.387       .  A
C1636      S1642   1.706       .  A
C1636      C1637   1.402       .  A
C1637      C1638   1.402       .  A
C1637      H1646   1.083       .  S
C1638      C1641   1.371       .  A
S1639      C1640   1.724       .  A
C1640      C1641   1.387       .  A
C1641      H1647   1.083       .  S
S1642      C1643   1.724       .  A
C1643      C1644   1.387       .  A
C1644      H1648   1.083       .  S
C1649      S1655   1.707       .  A
C1649      C1654   1.387       .  A
C1649      C1650   1.402       .  A
C1650      C1651   1.402       .  A
C1650      H1661   1.082       .  S
C1651      C1660   1.371       .  A
C1651      C1652   1.387       .  A
C1652      S1658   1.709       .  A
C1652      C1653   1.403       .  A
C1653      C1654   1.404       .  A
C1653      H1662   1.082       .  S
C1654      C1657   1.373       .  A
S1655      C1656   1.722       .  A
C1656      C1657   1.386       .  A
C1657      H1663   1.083       .  S
S1658      C1659   1.722       .  A
C1659      C1660   1.385       .  A
C1660      H1664   1.083       .  S
C1665      S1671   1.703       .  A
C1665      C1670   1.387       .  A
C1665      C1666   1.399       .  A
C1666      C1667   1.400       .  A
C1666      H1677   1.083       .  S
C1667      C1676   1.367       .  A
C1667      C1668   1.387       .  A
C1668      S1674   1.710       .  A
C1668      C1669   1.404       .  A
C1669      C1670   1.404       .  A
C1669      H1678   1.083       .  S
C1670      C1673   1.372       .  A
S1671      C1672   1.722       .  A
C1672      C1673   1.388       .  A
C1673      H1679   1.083       .  S
S1674      C1675   1.724       .  A
C1675      C1676   1.386       .  A
C1676      H1680   1.083       .  S
C1681      S1687   1.708       .  A
C1681      C1686   1.387       .  A
C1681      C1682   1.402       .  A
C1682      C1683   1.403       .  A
C1682      H1693   1.083       .  S
C1683      C1692   1.372       .  A
C1683      C1684   1.387       .  A
C1684      S1690   1.708       .  A
C1684      C1685   1.402       .  A
C1685      C1686   1.403       .  A
C1685      H1694   1.083       .  S
C1686      C1689   1.372       .  A
S1687      C1688   1.724       .  A
C1688      C1689   1.388       .  A
C1689      H1695   1.083       .  S
S1690      C1691   1.724       .  A
C1691      C1692   1.387       .  A
C1692      H1696   1.083       .  S
C1697      S1703   1.709       .  A
C1697      C1702   1.388       .  A
C1697      C1698   1.404       .  A
C1698      C1699   1.404       .  A
C1698      H1709   1.080       .  S
C1699      C1708   1.373       .  A
C1699      C1700   1.387       .  A
C1700      S1706   1.704       .  A
C1700      C1701   1.400       .  A
C1701      C1702   1.400       .  A
C1701      H1710   1.080       .  S
C1702      C1705   1.370       .  A
S1703      C1704   1.722       .  A
C1704      C1705   1.382       .  A
C1705      H1711   1.082       .  S
S1706      C1707   1.721       .  A
C1707      C1708   1.387       .  A
C1708      H1712   1.082       .  S
C1713      S1719   1.711       .  A
C1713      C1718   1.387       .  A
C1713      C1714   1.405       .  A
C1714      C1715   1.405       .  A
C1714      H1725   1.081       .  S
C1715      C1724   1.373       .  A
C1715      C1716   1.388       .  A
C1716      S1722   1.705       .  A
C1716      C1717   1.399       .  A
C1717      C1718   1.400       .  A
C1717      H1726   1.081       .  S
C1718      C1721   1.369       .  A
S1719      C1720   1.725       .  A
C1720      C1721   1.384       .  A
C1721      H1727   1.082       .  S
S1722      C1723   1.719       .  A
C1723      C1724   1.386       .  A
C1724      H1728   1.082       .  S
C1729      S1735   1.709       .  A
C1729      C1734   1.387       .  A
C1729      C1730   1.401       .  A
C1730      C1731   1.403       .  A
C1730      H1741   1.082       .  S
C1731      C1740   1.369       .  A
C1731      C1732   1.387       .  A
C1732      S1738   1.712       .  A
C1732      C1733   1.403       .  A
C1733      C1734   1.405       .  A
C1733      H1742   1.081       .  S
C1734      C1737   1.372       .  A
S1735      C1736   1.721       .  A
C1736      C1737   1.387       .  A
C1737      H1743   1.082       .  S
S1738      C1739   1.722       .  A
C1739      C1740   1.385       .  A
C1740      H1744   1.082       .  S
C1745      S1751   1.708       .  A
C1745      C1750   1.387       .  A
C1745      C1746   1.403       .  A
C1746      C1747   1.403       .  A
C1746      H1757   1.083       .  S
C1747      C1756   1.373       .  A
C1747      C1748   1.387       .  A
C1748      S1754   1.704       .  A
C1748      C1749   1.401       .  A
C1749      C1750   1.401       .  A
C1749      H1758   1.083       .  S
C1750      C1753   1.371       .  A
S1751      C1752   1.724       .  A
C1752      C1753   1.387       .  A
C1753      H1759   1.083       .  S
S1754      C1755   1.723       .  A
C1755      C1756   1.387       .  A
C1756      H1760   1.083       .  S
C1761      S1767   1.703       .  A
C1761      C1766   1.388       .  A
C1761      C1762   1.399       .  A
C1762      C1763   1.400       .  A
C1762      H1773   1.080       .  S
C1763      C1772   1.369       .  A
C1763      C1764   1.387       .  A
C1764      S1770   1.708       .  A
C1764      C1765   1.403       .  A
C1765      C1766   1.403       .  A
C1765      H1774   1.080       .  S
C1766      C1769   1.372       .  A
S1767      C1768   1.718       .  A
C1768      C1769   1.384       .  A
C1769      H1775   1.081       .  S
S1770      C1771   1.723       .  A
C1771      C1772   1.384       .  A
C1772      H1776   1.081       .  S
C1777      S1783   1.705       .  A
C1777      C1782   1.388       .  A
C1777      C1778   1.401       .  A
C1778      C1779   1.401       .  A
C1778      H1789   1.081       .  S
C1779      C1788   1.371       .  A
C1779      C1780   1.388       .  A
C1780      S1786   1.707       .  A
C1780      C1781   1.403       .  A
C1781      C1782   1.403       .  A
C1781      H1790   1.081       .  S
C1782      C1785   1.373       .  A
S1783      C1784   1.721       .  A
C1784      C1785   1.386       .  A
C1785      H1791   1.082       .  S
S1786      C1787   1.722       .  A
C1787      C1788   1.384       .  A
C1788      H1792   1.082       .  S
C1793      S1799   1.704       .  A
C1793      C1798   1.387       .  A
C1793      C1794   1.399       .  A
C1794      C1795   1.400       .  A
C1794      H1805   1.083       .  S
C1795      C1804   1.366       .  A
C1795      C1796   1.387       .  A
C1796      S1802   1.707       .  A
C1796      C1797   1.401       .  A
C1797      C1798   1.402       .  A
C1797      H1806   1.083       .  S
C1798      C1801   1.368       .  A
S1799      C1800   1.722       .  A
C1800      C1801   1.386       .  A
C1801      H1807   1.083       .  S
S1802      C1803   1.723       .  A
C1803      C1804   1.384       .  A
C1804      H1808   1.083       .  S
C1809      S1815   1.708       .  A
C1809      C1814   1.388       .  A
C1809      C1810   1.401       .  A
C1810      C1811   1.402       .  A
C1810      H1821   1.082       .  S
C1811      C1820   1.371       .  A
C1811      C1812   1.387       .  A
C1812      S1818   1.707       .  A
C1812      C1813   1.402       .  A
C1813      C1814   1.402       .  A
C1813      H1822   1.082       .  S
C1814      C1817   1.371       .  A
S1815      C1816   1.719       .  A
C1816      C1817   1.383       .  A
C1817      H1823   1.082       .  S
S1818      C1819   1.723       .  A
C1819      C1820   1.387       .  A
C1820      H1824   1.082       .  S
C1825      S1831   1.707       .  A
C1825      C1830   1.387       .  A
C1825      C1826   1.403       .  A
C1826      C1827   1.403       .  A
C1826      H1837   1.083       .  S
C1827      C1836   1.372       .  A
C1827      C1828   1.387       .  A
C1828      S1834   1.708       .  A
C1828      C1829   1.403       .  A
C1829      C1830   1.403       .  A
C1829      H1838   1.083       .  S
C1830      C1833   1.373       .  A
S1831      C1832   1.724       .  A
C1832      C1833   1.388       .  A
C1833      H1839   1.083       .  S
S1834      C1835   1.724       .  A
C1835      C1836   1.388       .  A
C1836      H1840   1.083       .  S
C1841      S1847   1.704       .  A
C1841      C1846   1.387       .  A
C1841      C1842   1.399       .  A
C1842      C1843   1.400       .  A
C1842      H1853   1.083       .  S
C1843      C1852   1.367       .  A
C1843      C1844   1.386       .  A
C1844      S1850   1.713       .  A
C1844      C1845   1.405       .  A
C1845      C1846   1.406       .  A
C1845      H1854   1.083       .  S
C1846      C1849   1.373       .  A
S1847      C1848   1.722       .  A
C1848      C1849   1.389       .  A
C1849      H1855   1.083       .  S
S1850      C1851   1.725       .  A
C1851      C1852   1.386       .  A
C1852      H1856   1.083       .  S
C1857      S1863   1.709       .  A
C1857      C1862   1.387       .  A
C1857      C1858   1.403       .  A
C1858      C1859   1.404       .  A
C1858      H1869   1.082       .  S
C1859      C1868   1.373       .  A
C1859      C1860   1.388       .  A
C1860      S1866   1.704       .  A
C1860      C1861   1.400       .  A
C1861      C1862   1.400       .  A
C1861      H1870   1.082       .  S
C1862      C1865   1.368       .  A
S1863      C1864   1.721       .  A
C1864      C1865   1.383       .  A
C1865      H1871   1.083       .  S
S1866      C1867   1.721       .  A
C1867      C1868   1.386       .  A
C1868      H1872   1.083       .  S
C1873      S1879   1.708       .  A
C1873      C1878   1.387       .  A
C1873      C1874   1.402       .  A
C1874      C1875   1.403       .  A
C1874      H1885   1.082       .  S
C1875      C1884   1.371       .  A
C1875      C1876   1.388       .  A
C1876      S1882   1.709       .  A
C1876      C1877   1.403       .  A
C1877      C1878   1.404       .  A
C1877      H1886   1.082       .  S
C1878      C1881   1.371       .  A
S1879      C1880   1.722       .  A
C1880      C1881   1.388       .  A
C1881      H1887   1.083       .  S
S1882      C1883   1.721       .  A
C1883      C1884   1.384       .  A
C1884      H1888   1.083       .  S
C1889      S1895   1.706       .  A
C1889      C1894   1.388       .  A
C1889      C1890   1.400       .  A
C1890      C1891   1.401       .  A
C1890      H1901   1.080       .  S
C1891      C1900   1.369       .  A
C1891      C1892   1.387       .  A
C1892      S1898   1.711       .  A
C1892      C1893   1.404       .  A
C1893      C1894   1.405       .  A
C1893      H1902   1.081       .  S
C1894      C1897   1.373       .  A
S1895      C1896   1.719       .  A
C1896      C1897   1.385       .  A
C1897      H1903   1.082       .  S
S1898      C1899   1.723       .  A
C1899      C1900   1.386       .  A
C1900      H1904   1.081       .  S
C1905      S1911   1.709       .  A
C1905      C1910   1.387       .  A
C1905      C1906   1.403       .  A
C1906      C1907   1.404       .  A
C1906      H1917   1.083       .  S
C1907      C1916   1.372       .  A
C1907      C1908   1.387       .  A
C1908      S1914   1.705       .  A
C1908      C1909   1.400       .  A
C1909      C1910   1.401       .  A
C1909      H1918   1.083       .  S
C1910      C1913   1.369       .  A
S1911      C1912   1.724       .  A
C1912      C1913   1.386       .  A
C1913      H1919   1.083       .  S
S1914      C1915   1.723       .  A
C1915      C1916   1.388       .  A
C1916      H1920   1.083       .  S
C1921      S1927   1.711       .  A
C1921      C1926   1.387       .  A
C1921      C1922   1.403       .  A
C1922      C1923   1.404       .  A
C1922      H1933   1.082       .  S
C1923      C1932   1.372       .  A
C1923      C1924   1.387       .  A
C1924      S1930   1.707       .  A
C1924      C1925   1.401       .  A
C1925      C1926   1.402       .  A
C1925      H1934   1.082       .  S
C1926      C1929   1.369       .  A
S1927      C1928   1.721       .  A
C1928      C1929   1.383       .  A
C1929      H1935   1.083       .  S
S1930      C1931   1.722       .  A
C1931      C1932   1.388       .  A
C1932      H1936   1.083       .  S
C1937      S1943   1.705       .  A
C1937      C1942   1.388       .  A
C1937      C1938   1.398       .  A
C1938      C1939   1.400       .  A
C1938      H1949   1.081       .  S
C1939      C1948   1.366       .  A
C1939      C1940   1.387       .  A
C1940      S1946   1.712       .  A
C1940      C1941   1.403       .  A
C1941      C1942   1.405       .  A
C1941      H1950   1.081       .  S
C1942      C1945   1.371       .  A
S1943      C1944   1.719       .  A
C1944      C1945   1.385       .  A
C1945      H1951   1.082       .  S
S1946      C1947   1.722       .  A
C1947      C1948   1.384       .  A
C1948      H1952   1.082       .  S
C1953      S1959   1.709       .  A
C1953      C1958   1.387       .  A
C1953      C1954   1.402       .  A
C1954      C1955   1.403       .  A
C1954      H1965   1.083       .  S
C1955      C1964   1.370       .  A
C1955      C1956   1.387       .  A
C1956      S1962   1.709       .  A
C1956      C1957   1.402       .  A
C1957      C1958   1.404       .  A
C1957      H1966   1.083       .  S
C1958      C1961   1.371       .  A
S1959      C1960   1.724       .  A
C1960      C1961   1.388       .  A
C1961      H1967   1.083       .  S
S1962      C1963   1.723       .  A
C1963      C1964   1.388       .  A
C1964      H1968   1.083       .  S
C1969      S1975   1.712       .  A
C1969      C1974   1.387       .  A
C1969      C1970   1.404       .  A
C1970      C1971   1.405       .  A
C1970      H1981   1.082       .  S
C1971      C1980   1.372       .  A
C1971      C1972   1.387       .  A
C1972      S1978   1.708       .  A
C1972      C1973   1.401       .  A
C1973      C1974   1.402       .  A
C1973      H1982   1.082       .  S
C1974      C1977   1.369       .  A
S1975      C1976   1.723       .  A
C1976      C1977   1.385       .  A
C1977      H1983   1.083       .  S
S1978      C1979   1.720       .  A
C1979      C1980   1.386       .  A
C1980      H1984   1.082       .  S
C1985      S1991   1.706       .  A
C1985      C1990   1.387       .  A
C1985      C1986   1.402       .  A
C1986      C1987   1.402       .  A
C1986      H1997   1.083       .  S
C1987      C1996   1.372       .  A
C1987      C1988   1.387       .  A
C1988      S1994   1.706       .  A
C1988      C1989   1.402       .  A
C1989      C1990   1.403       .  A
C1989      H1998   1.083       .  S
C1990      C1993   1.373       .  A
S1991      C1992   1.724       .  A
C1992      C1993   1.388       .  A
C1993      H1999   1.083       .  S
S1994      C1995   1.724       .  A
C1995      C1996   1.387       .  A
C1996      H2000   1.083       .  S
C2001      S2007   1.704       .  A
C2001      C2006   1.387       .  A
C2001      C2002   1.399       .  A
C2002      C2003   1.400       .  A
C2002      H2013   1.083       .  S
C2003      C2012   1.368       .  A
C2003      C2004   1.387       .  A
C2004      S2010   1.709       .  A
C2004      C2005   1.403       .  A
C2005      C2006   1.404       .  A
C2005      H2014   1.083       .  S
C2006      C2009   1.371       .  A
S2007      C2008   1.722       .  A
C2008      C2009   1.388       .  A
C2009      H2015   1.083       .  S
S2010      C2011   1.724       .  A
C2011      C2012   1.386       .  A
C2012      H2016   1.083       .  S
C2017      S2023   1.709       .  A
C2017      C2022   1.387       .  A
C2017      C2018   1.403       .  A
C2018      C2019   1.404       .  A
C2018      H2029   1.082       .  S
C2019      C2028   1.372       .  A
C2019      C2020   1.387       .  A
C2020      S2026   1.709       .  A
C2020      C2021   1.402       .  A
C2021      C2022   1.402       .  A
C2021      H2030   1.082       .  S
C2022      C2025   1.371       .  A
S2023      C2024   1.723       .  A
C2024      C2025   1.385       .  A
C2025      H2031   1.082       .  S
S2026      C2027   1.721       .  A
C2027      C2028   1.387       .  A
C2028      H2032   1.082       .  S
C2033      S2039   1.704       .  A
C2033      C2038   1.388       .  A
C2033      C2034   1.400       .  A
C2034      C2035   1.400       .  A
C2034      H2045   1.082       .  S
C2035      C2044   1.368       .  A
C2035      C2036   1.387       .  A
C2036      S2042   1.709       .  A
C2036      C2037   1.403       .  A
C2037      C2038   1.404       .  A
C2037      H2046   1.082       .  S
C2038      C2041   1.372       .  A
S2039      C2040   1.720       .  A
C2040      C2041   1.386       .  A
C2041      H2047   1.082       .  S
S2042      C2043   1.722       .  A
C2043      C2044   1.384       .  A
C2044      H2048   1.083       .  S
C2049      S2055   1.711       .  A
C2049      C2054   1.387       .  A
C2049      C2050   1.405       .  A
C2050      C2051   1.406       .  A
C2050      H2061   1.081       .  S
C2051      C2060   1.375       .  A
C2051      C2052   1.387       .  A
C2052      S2058   1.703       .  A
C2052      C2053   1.399       .  A
C2053      C2054   1.400       .  A
C2053      H2062   1.082       .  S
C2054      C2057   1.369       .  A
S2055      C2056   1.723       .  A
C2056      C2057   1.382       .  A
C2057      H2063   1.082       .  S
S2058      C2059   1.721       .  A
C2059      C2060   1.389       .  A
C2060      H2064   1.082       .  S
C2065      S2071   1.709       .  A
C2065      C2070   1.388       .  A
C2065      C2066   1.404       .  A
C2066      C2067   1.404       .  A
C2066      H2077   1.080       .  S
C2067      C2076   1.374       .  A
C2067      C2068   1.387       .  A
C2068      S2074   1.704       .  A
C2068      C2069   1.401       .  A
C2069      C2070   1.401       .  A
C2069      H2078   1.080       .  S
C2070      C2073   1.372       .  A
S2071      C2072   1.722       .  A
C2072      C2073   1.383       .  A
C2073      H2079   1.082       .  S
S2074      C2075   1.722       .  A
C2075      C2076   1.388       .  A
C2076      H2080   1.081       .  S
C2081      S2087   1.707       .  A
C2081      C2086   1.387       .  A
C2081      C2082   1.402   1_545  A
C2082      C2083   1.402       .  A
C2082      H2093   1.083       .  S
C2083      C2092   1.371       .  A
C2083      C2084   1.387       .  A
C2084      S2090   1.706       .  A
C2084      C2085   1.401   1_565  A
C2085      C2086   1.402       .  A
C2085      H2094   1.083       .  S
C2086      C2089   1.371       .  A
S2087      C2088   1.724       .  A
C2088      C2089   1.387       .  A
C2089      H2095   1.083       .  S
S2090      C2091   1.723       .  A
C2091      C2092   1.387       .  A
C2092      H2096   1.083       .  S
C2097      S2103   1.708       .  A
C2097      C2102   1.388       .  A
C2097      C2098   1.401       .  A
C2098      C2099   1.402       .  A
C2098      H2109   1.080       .  S
C2099      C2108   1.370       .  A
C2099      C2100   1.387       .  A
C2100      S2106   1.709       .  A
C2100      C2101   1.402       .  A
C2101      C2102   1.403       .  A
C2101      H2110   1.080       .  S
C2102      C2105   1.371       .  A
S2103      C2104   1.720       .  A
C2104      C2105   1.385       .  A
C2105      H2111   1.082       .  S
S2106      C2107   1.723       .  A
C2107      C2108   1.386       .  A
C2108      H2112   1.082       .  S
C2113      S2119   1.711       .  A
C2113      C2118   1.387       .  A
C2113      C2114   1.404       .  A
C2114      C2115   1.404       .  A
C2114      H2125   1.081       .  S
C2115      C2124   1.373       .  A
C2115      C2116   1.387       .  A
C2116      S2122   1.709       .  A
C2116      C2117   1.403       .  A
C2117      C2118   1.404       .  A
C2117      H2126   1.081       .  S
C2118      C2121   1.372       .  A
S2119      C2120   1.723       .  A
C2120      C2121   1.388       .  A
C2121      H2127   1.082       .  S
S2122      C2123   1.721       .  A
C2123      C2124   1.385       .  A
C2124      H2128   1.082       .  S
C2129      S2135   1.714       .  A
C2129      C2134   1.386       .  A
C2129      C2130   1.407       .  A
C2130      C2131   1.408   1_455  A
C2130      H2141   1.083   1_455  S
C2131      C2140   1.377       .  A
C2131      C2132   1.387       .  A
C2132      S2138   1.704       .  A
C2132      C2133   1.400   1_655  A
C2133      C2134   1.400       .  A
C2133      H2142   1.083       .  S
C2134      C2137   1.370       .  A
S2135      C2136   1.727       .  A
C2136      C2137   1.386       .  A
C2137      H2143   1.083       .  S
S2138      C2139   1.722       .  A
C2139      C2140   1.391       .  A
C2140      H2144   1.083       .  S
C2145      S2151   1.708       .  A
C2145      C2150   1.387       .  A
C2145      C2146   1.401       .  A
C2146      C2147   1.402       .  A
C2146      H2157   1.081       .  S
C2147      C2156   1.369       .  A
C2147      C2148   1.388       .  A
C2148      S2154   1.706       .  A
C2148      C2149   1.399       .  A
C2149      C2150   1.401       .  A
C2149      H2158   1.081       .  S
C2150      C2153   1.367       .  A
S2151      C2152   1.721       .  A
C2152      C2153   1.384       .  A
C2153      H2159   1.082       .  S
S2154      C2155   1.719       .  A
C2155      C2156   1.384       .  A
C2156      H2160   1.082       .  S
C2161      S2167   1.708       .  A
C2161      C2166   1.387       .  A
C2161      C2162   1.402       .  A
C2162      C2163   1.403       .  A
C2162      H2173   1.081       .  S
C2163      C2172   1.372       .  A
C2163      C2164   1.388       .  A
C2164      S2170   1.706       .  A
C2164      C2165   1.401       .  A
C2165      C2166   1.402       .  A
C2165      H2174   1.081       .  S
C2166      C2169   1.369       .  A
S2167      C2168   1.722       .  A
C2168      C2169   1.385       .  A
C2169      H2175   1.082       .  S
S2170      C2171   1.721       .  A
C2171      C2172   1.385       .  A
C2172      H2176   1.082       .  S
C2177      S2183   1.710       .  A
C2177      C2182   1.387       .  A
C2177      C2178   1.403   1_455  A
C2178      C2179   1.404       .  A
C2178      H2189   1.083       .  S
C2179      C2188   1.372       .  A
C2179      C2180   1.387       .  A
C2180      S2186   1.702       .  A
C2180      C2181   1.398   1_655  A
C2181      C2182   1.399       .  A
C2181      H2190   1.083       .  S
C2182      C2185   1.365       .  A
S2183      C2184   1.724       .  A
C2184      C2185   1.384       .  A
C2185      H2191   1.083       .  S
S2186      C2187   1.722       .  A
C2187      C2188   1.388       .  A
C2188      H2192   1.083       .  S
C2193      S2199   1.708       .  A
C2193      C2198   1.387       .  A
C2193      C2194   1.403   1_565  A
C2194      C2195   1.404       .  A
C2194      H2205   1.083       .  S
C2195      C2204   1.373       .  A
C2195      C2196   1.387       .  A
C2196      S2202   1.704       .  A
C2196      C2197   1.400   1_545  A
C2197      C2198   1.400       .  A
C2197      H2206   1.083       .  S
C2198      C2201   1.369       .  A
S2199      C2200   1.725       .  A
C2200      C2201   1.385       .  A
C2201      H2207   1.083       .  S
S2202      C2203   1.722       .  A
C2203      C2204   1.388       .  A
C2204      H2208   1.083       .  S
