geometry optimzed in LAMMPS
_audit_creation_date              2020-11-30 
_audit_creation_method            'lammps2cif' 
_symmetry_space_group_name_H-M    'P1' 
_symmetry_Int_Tables_number       1 
_symmetry_cell_setting            triclinic 
loop_ 
_symmetry_equiv_pos_as_xyz 
  x,y,z 
_cell_length_a                    34.31319209 
_cell_length_b                    34.40633268199879 
_cell_length_c                    28.613299574090387 
_cell_angle_alpha                 90.24474559730845 
_cell_angle_beta                  89.7986137069658 
_cell_angle_gamma                 120.07599462731031 
loop_ 
_atom_site_label 
_atom_site_type_symbol 
_atom_site_fract_x 
_atom_site_fract_y 
_atom_site_fract_z 
_atom_site_charge 
O1          O  0.61979536  0.72984474  0.40207859    -0.85300
O2          O  0.60512428  0.68524479  0.48593817    -0.82400
C3          C  0.59841156  0.71154407  0.51078895     0.98100
O4          O  0.56393278  0.71472388  0.50311252    -0.82400
O5          O  0.48899579  0.70810997  0.45708542    -0.85100
C6          C  0.49155669  0.72946214  0.42009183     1.02700
O7          O  0.50699946  0.72259074  0.38285666    -0.77800
O8          O  0.57530344  0.71629183  0.34126517    -0.78000
C9          C  0.61033814  0.74259819  0.36476490     1.02600
O10         O  0.58748806  0.64750537  0.35332272    -0.85300
O11         O  0.55515129  0.60416879  0.43717052    -0.82400
C12         C  0.53180047  0.59095479  0.47397146     0.98200
O13         O  0.52209072  0.61668674  0.49715678    -0.82400
O14         O  0.44966036  0.61283825  0.45374712    -0.85000
C15         C  0.42842224  0.60657272  0.41598864     1.02600
O16         O  0.44872097  0.62784919  0.37939987    -0.77800
O17         O  0.51690579  0.61889663  0.33564576    -0.78000
C18         C  0.55445695  0.62162143  0.32818767     1.02600
Cr19       Cr  0.58754090  0.66678105  0.41958414     1.93700
Cr20       Cr  0.50876684  0.66372042  0.47331102     1.93200
Cr21       Cr  0.51377828  0.67077818  0.36432081     1.39100
O22         O  0.53584924  0.66709746  0.41910970    -1.23100
O23         O  0.72721101  0.62220299  0.09843824    -0.85300
O24         O  0.67998182  0.60944628  0.01694306    -0.82400
C25         C  0.70445909  0.60115761  0.99077450     0.98100
O26         O  0.70611338  0.56578501  0.99715007    -0.82400
O27         O  0.69611705  0.48829398  0.04014972    -0.85100
C28         C  0.72051368  0.49166983  0.07491557     1.02700
O29         O  0.71770071  0.50946954  0.11242298    -0.77800
O30         O  0.71495166  0.57722848  0.15833946    -0.78000
C31         C  0.74085791  0.61215950  0.13476296     1.02600
O32         O  0.64690941  0.59185867  0.15094618    -0.85300
O33         O  0.59924320  0.56189224  0.06859493    -0.82400
C34         C  0.58460788  0.53986528  0.03115378     0.98200
O35         O  0.60908097  0.52958940  0.00634688    -0.82400
O36         O  0.60174675  0.45573668  0.04822584    -0.85000
C37         C  0.59767699  0.43371355  0.08467648     1.02600
O38         O  0.62238191  0.45254538  0.12001016    -0.77800
O39         O  0.61747242  0.52121027  0.16806286    -0.78000
C40         C  0.62114059  0.55900634  0.17626285     1.02600
Cr41       Cr  0.66319894  0.59205774  0.08363057     1.93700
Cr42       Cr  0.65424748  0.51236177  0.02737370     1.93200
Cr43       Cr  0.66728405  0.51685072  0.13543470     1.39100
O44         O  0.66149469  0.53963310  0.08214704    -1.23100
O45         O  0.70793610  0.77931321  0.77219145    -0.85300
O46         O  0.71873372  0.74501040  0.68863944    -0.82400
C47         C  0.72638174  0.77766543  0.66306890     0.98100
O48         O  0.76099976  0.81516268  0.67068640    -0.82400
O49         O  0.83622670  0.88349335  0.71492628    -0.85100
C50         C  0.83534376  0.90323121  0.75207883     1.02700
O51         O  0.82231889  0.88224818  0.79018052    -0.77800
O52         O  0.75270053  0.81079015  0.83294599    -0.78000
C53         C  0.71805892  0.80254552  0.80916479     1.02600
O54         O  0.73689728  0.72828025  0.82131004    -0.85300
O55         O  0.76789639  0.71329814  0.73821891    -0.82400
C56         C  0.79149720  0.72292170  0.70164393     0.98200
O57         O  0.80136892  0.75785695  0.67769677    -0.82400
O58         O  0.87502732  0.82682084  0.71857609    -0.85000
C59         C  0.89641714  0.83997699  0.75648110     1.02600
O60         O  0.87698371  0.84161505  0.79350153    -0.77800
O61         O  0.80791833  0.76742360  0.83756584    -0.78000
C62         C  0.76989833  0.73342822  0.84490750     1.02600
Cr63       Cr  0.73725060  0.74580384  0.75504079     1.93700
Cr64       Cr  0.81598523  0.81903862  0.69998147     1.93200
Cr65       Cr  0.81306137  0.82307644  0.80914614     1.39100
O66         O  0.78967236  0.79687962  0.75466457    -1.23100
O67         O  0.27341238  0.42960668  0.84331482    -0.85300
O68         O  0.28337871  0.50930267  0.87685330    -0.82400
C69         C  0.26621998  0.51367604  0.91417954     0.98100
O70         O  0.27625002  0.50402400  0.95335498    -0.82400
O71         O  0.27805642  0.43615926  0.00255268    -0.85100
C72         C  0.28386996  0.40358572  0.01133538     1.02700
O73         O  0.31277118  0.40034186  0.98772775    -0.77800
O74         O  0.26205375  0.38562762  0.90539617    -0.78000
C75         C  0.24829400  0.39497177  0.86823213     1.02600
O76         O  0.37378686  0.47613014  0.83340094    -0.85300
O77         O  0.37841675  0.55090432  0.87412137    -0.82400
C78         C  0.38904622  0.57328430  0.91177183     0.98200
O79         O  0.37138914  0.55466967  0.95022781    -0.82400
O80         O  0.37843277  0.48641458  0.99216970    -0.85000
C81         C  0.40369355  0.47542461  0.96921304     1.02600
O82         O  0.38930865  0.44862051  0.93466108    -0.77800
O83         O  0.33698418  0.40734291  0.85412552    -0.78000
C84         C  0.36496687  0.43635104  0.82723259     1.02600
Cr85       Cr  0.32716876  0.48929111  0.86130252     1.93700
Cr86       Cr  0.32606383  0.49294515  0.97059789     1.93200
Cr87       Cr  0.32548663  0.41532335  0.92026715     1.39100
O88         O  0.32623539  0.46697035  0.91730823    -1.23100
O89         O  0.41889322  0.28338388  0.65837044    -0.85300
O90         O  0.49402500  0.28626146  0.62073028    -0.82400
C91         C  0.49931240  0.26990935  0.58330750     0.98100
O92         O  0.49207455  0.28184852  0.54391891    -0.82400
O93         O  0.42152761  0.28104866  0.49755378    -0.85100
C94         C  0.38885433  0.28680343  0.48935082     1.02700
O95         O  0.38448029  0.31460494  0.51372419    -0.77800
O96         O  0.37189309  0.26869412  0.59853035    -0.78000
C97         C  0.38270389  0.25692989  0.63597050     1.02600
O98         O  0.47083466  0.38402643  0.66153281    -0.85300
O99         O  0.54188950  0.38160409  0.61855356    -0.82400
C100        C  0.56215013  0.39318966  0.57954451     0.98200
O101        O  0.54112115  0.37699837  0.54195206    -0.82400
O102        O  0.47025297  0.38067037  0.50260900    -0.85000
C103        C  0.46009713  0.40658006  0.52525198     1.02600
O104        O  0.43544132  0.39361893  0.56146267    -0.77800
O105        O  0.40015227  0.34804690  0.64596211    -0.78000
C106        C  0.43173765  0.37612481  0.67084320     1.02600
Cr107      Cr  0.47913644  0.33380238  0.63538141     1.93700
Cr108      Cr  0.47883109  0.33013601  0.52594506     1.93200
Cr109      Cr  0.40266860  0.33130843  0.57985949     1.39100
O110        O  0.45452056  0.33155046  0.58032919    -1.23100
O111        O  0.21744711  0.16774225  0.18576864    -0.85300
O112        O  0.13667469  0.11502262  0.22524383    -0.82400
C113        C  0.14706317  0.09974521  0.26044197     0.98100
O114        O  0.16758124  0.12532047  0.29464207    -0.82400
O115        O  0.21667913  0.20575773  0.34643266    -0.85100
C116        C  0.25816673  0.22219064  0.33862518     1.02700
O117        O  0.27269606  0.23312282  0.29748601    -0.77800
O118        O  0.27229039  0.23590492  0.20215445    -0.78000
C119        C  0.25877769  0.19637318  0.18783756     1.02600
O120        O  0.19364163  0.23207299  0.15648313    -0.85300
O121        O  0.11279482  0.18338496  0.20839094    -0.82400
C122        C  0.08665771  0.16246846  0.24207358     0.98200
O123        O  0.10127905  0.15066299  0.27648316    -0.82400
O124        O  0.15576718  0.23196613  0.31428299    -0.85000
C125        C  0.18655126  0.27246286  0.31260859     1.02600
O126        O  0.22635477  0.28346354  0.30116299    -0.77800
O127        O  0.22679786  0.28770419  0.20572252    -0.78000
C128        C  0.21331768  0.27385058  0.16481361     1.02600
Cr129      Cr  0.16699599  0.17718886  0.19790664     1.93700
Cr130      Cr  0.16309848  0.18030021  0.30397971     1.93200
Cr131      Cr  0.24505726  0.25573449  0.25155512     1.39100
O132        O  0.19213915  0.20476179  0.25104099    -1.23100
O133        O  0.43644614  0.05103726  0.06971496    -0.85300
O134        O  0.40287543  0.06304218  0.15418175    -0.82400
C135        C  0.43606610  0.07073681  0.17897847     0.98100
O136        O  0.47389253  0.10365769  0.16887427    -0.82400
O137        O  0.54120398  0.17873685  0.12412949    -0.85100
C138        C  0.56042818  0.17936494  0.08595258     1.02700
O139        O  0.53847186  0.16676288  0.04841133    -0.77800
O140        O  0.46617406  0.09571024  0.00845149    -0.78000
C141        C  0.45908561  0.06152338  0.03233783     1.02600
O142        O  0.38324497  0.07847616  0.02110966    -0.85300
O143        O  0.36982660  0.10986812  0.10547058    -0.82400
C144        C  0.37936175  0.13266997  0.14267864     0.98200
O145        O  0.41585926  0.14474475  0.16510067    -0.82400
O146        O  0.48504133  0.21763952  0.12366565    -0.85000
C147        C  0.49715210  0.23906685  0.08587610     1.02600
O148        O  0.49611554  0.21957081  0.04778241    -0.77800
O149        O  0.42108729  0.14918005  0.00406607    -0.78000
C150        C  0.38788068  0.11066612  0.99637912     1.02600
Cr151      Cr  0.40246846  0.07994851  0.08742061     1.93700
Cr152      Cr  0.47697345  0.15867465  0.14102500     1.93200
Cr153      Cr  0.47801148  0.15588850  0.03168620     1.39100
O154        O  0.45326009  0.13263202  0.08667946    -1.23100
O155        O  0.28234409  0.06187856  0.73347695    -0.85300
O156        O  0.26698797  0.01704958  0.81908086    -0.82400
C157        C  0.26057653  0.04398004  0.84310517     0.98100
O158        O  0.22789235  0.04922550  0.83303842    -0.82400
O159        O  0.15620121  0.04545372  0.78591999    -0.85100
C160        C  0.15435843  0.06209077  0.74718689     1.02700
O161        O  0.16384528  0.04947279  0.70951319    -0.77800
O162        O  0.23699866  0.04864764  0.67261689    -0.78000
C163        C  0.27245898  0.07455048  0.69608196     1.02600
O164        O  0.25264865  0.98068265  0.68630468    -0.85300
O165        O  0.21582368  0.93596868  0.76976307    -0.82400
C166        C  0.19033676  0.92341893  0.80519605     0.98200
O167        O  0.18259158  0.95053168  0.82848642    -0.82400
O168        O  0.11221937  0.94999098  0.78553838    -0.85000
C169        C  0.09151671  0.93697349  0.74728962     1.02600
O170        O  0.11154583  0.95326671  0.70888465    -0.77800
O171        O  0.18248023  0.94945196  0.66749927    -0.78000
C172        C  0.22060560  0.95342568  0.66111550     1.02600
Cr173      Cr  0.25000171  0.99896983  0.75208530     1.93700
Cr174      Cr  0.17222381  0.99910689  0.80373524     1.93200
Cr175      Cr  0.17576232  0.00000517  0.69425983     1.39100
O176        O  0.19851010  0.99964456  0.74994308    -1.23100
O177        O  0.39064287  0.95318191  0.43768596    -0.85300
O178        O  0.34292564  0.94144419  0.35478757    -0.82400
C179        C  0.37263749  0.94095425  0.32971683     0.98100
O180        O  0.38012880  0.90904055  0.33522123    -0.82400
O181        O  0.38117801  0.83587152  0.37338943    -0.85100
C182        C  0.39471773  0.82803202  0.41139724     1.02700
O183        O  0.37956356  0.83242379  0.45008051    -0.77800
O184        O  0.38094704  0.90408068  0.49383657    -0.78000
C185        C  0.40478768  0.94137790  0.47255565     1.02600
O186        O  0.31147864  0.92027479  0.48754887    -0.85300
O187        O  0.26499501  0.88668167  0.40340076    -0.82400
C188        C  0.25293988  0.86493817  0.36536148     0.98200
O189        O  0.27954361  0.85720037  0.34069318    -0.82400
O190        O  0.28571604  0.78624061  0.37458402    -0.85000
C191        C  0.27117770  0.76394435  0.41179970     1.02600
O192        O  0.28425063  0.78252970  0.45142371    -0.77800
O193        O  0.28137493  0.84953877  0.50138741    -0.78000
C194        C  0.28529402  0.88691019  0.51146310     1.02600
Cr195      Cr  0.32775619  0.92078270  0.42051459     1.93700
Cr196      Cr  0.33169624  0.84931712  0.36052921     1.93200
Cr197      Cr  0.33137482  0.84454822  0.46992479     1.39100
O198        O  0.33037185  0.87053915  0.41698900    -1.23100
O199        O  0.56779892  0.86278250  0.83453484    -0.85300
O200        O  0.49938218  0.78974667  0.87714937    -0.82400
C201        C  0.48308073  0.76832389  0.91455144     0.98100
O202        O  0.47891205  0.78773477  0.95029556    -0.82400
O203        O  0.55423069  0.85468761  0.99509261    -0.85100
C204        C  0.58932819  0.89170067  0.00295439     1.02700
O205        O  0.59675544  0.92537057  0.97907378    -0.77800
O206        O  0.61121935  0.89453668  0.89594254    -0.78000
C207        C  0.60228783  0.87169825  0.85888256     1.02600
O208        O  0.51047415  0.90263755  0.82675256    -0.85300
O209        O  0.44097736  0.82625327  0.87140511    -0.82400
C210        C  0.42090827  0.82908884  0.90750321     0.98200
O211        O  0.44239537  0.84593858  0.94478318    -0.82400
O212        O  0.51509840  0.91320604  0.98883680    -0.85000
C213        C  0.52447520  0.94810508  0.96515763     1.02600
O214        O  0.54792638  0.95787576  0.92851602    -0.77800
O215        O  0.58078230  0.94444492  0.84599890    -0.78000
C216        C  0.54838734  0.93727116  0.81998346     1.02600
Cr217      Cr  0.50629185  0.84785270  0.85685318     1.93700
Cr218      Cr  0.50019033  0.85226118  0.96541500     1.93200
Cr219      Cr  0.57985133  0.92635733  0.91233011     1.39100
O220        O  0.52791025  0.87474448  0.91143945    -1.23100
O221        O  0.75334236  0.95138649  0.32079202    -0.85300
O222        O  0.82757839  0.95515954  0.28041056    -0.82400
C223        C  0.83411971  0.93988862  0.24282515     0.98100
O224        O  0.82745066  0.95249923  0.20353538    -0.82400
O225        O  0.75380018  0.94789252  0.15879248    -0.85100
C226        C  0.71977991  0.95172807  0.15147171     1.02700
O227        O  0.71364015  0.97793498  0.17668565    -0.77800
O228        O  0.70581510  0.93452735  0.26149546    -0.78000
C229        C  0.71751399  0.92367687  0.29885511     1.02600
O230        O  0.80330663  0.05170744  0.32242422    -0.85300
O231        O  0.87360346  0.05050461  0.27799057    -0.82400
C232        C  0.89293829  0.06414302  0.23885892     0.98200
O233        O  0.87188940  0.04806647  0.20126794    -0.82400
O234        O  0.79837853  0.04696502  0.16310570    -0.85000
C235        C  0.78649365  0.07169739  0.18544066     1.02600
O236        O  0.76287459  0.05882098  0.22231282    -0.77800
O237        O  0.73246092  0.01464913  0.30816143    -0.78000
C238        C  0.76444636  0.04492939  0.33098872     1.02600
Cr239      Cr  0.81211636  0.00204887  0.29594454     1.93700
Cr240      Cr  0.81049863  0.99868474  0.18628413     1.93200
Cr241      Cr  0.73347005  0.99666959  0.24211016     1.39100
O242        O  0.78641728  0.99916934  0.24128997    -1.23100
O243        O  0.61193945  0.09316743  0.50028822    -0.85300
O244        O  0.60681193  0.16073492  0.54396855    -0.82400
C245        C  0.59904934  0.17422469  0.58196975     0.98100
O246        O  0.62012460  0.17546658  0.61880194    -0.82400
O247        O  0.61317201  0.10007320  0.66172274    -0.85100
C248        C  0.61624898  0.06565010  0.66892737     1.02700
O249        O  0.64249410  0.05883133  0.64395219    -0.77800
O250        O  0.59967464  0.04640598  0.55911729    -0.78000
C251        C  0.58710392  0.05670319  0.52219366     1.02600
O252        O  0.71032069  0.15049000  0.49579241    -0.85300
O253        O  0.70228123  0.21776508  0.54225094    -0.82400
C254        C  0.72289868  0.23686121  0.57965403     0.98200
O255        O  0.71572642  0.21471107  0.61666266    -0.82400
O256        O  0.71167365  0.14201051  0.65758423    -0.85000
C257        C  0.73730873  0.13213079  0.63441937     1.02600
O258        O  0.72494021  0.11001133  0.59677398    -0.77800
O259        O  0.68103103  0.07969258  0.51137663    -0.78000
C260        C  0.70575706  0.11271423  0.48591213     1.02600
Cr261      Cr  0.65852769  0.15359616  0.52508139     1.93700
Cr262      Cr  0.66457451  0.15552708  0.63405748     1.93200
Cr263      Cr  0.66219108  0.07827131  0.57798355     1.39100
O264        O  0.66165277  0.12985234  0.57904944    -1.23100
O265        O  0.09505617  0.38908706  0.36616645    -0.85300
O266        O  0.09233377  0.38269621  0.46227482    -0.82400
C267        C  0.10660401  0.39641829  0.50308308     0.98100
O268        O  0.12742038  0.43812168  0.51141788    -0.82400
O269        O  0.20751629  0.49108237  0.45899763    -0.85100
C270        C  0.23264851  0.51364548  0.42525932     1.02700
O271        O  0.21598402  0.52495742  0.39231780    -0.77800
O272        O  0.16457702  0.44339861  0.35226585    -0.78000
C273        C  0.13455550  0.40258014  0.35118525     1.02600
O274        O  0.04472220  0.43549949  0.37053846    -0.85300
O275        O  0.04432371  0.43116465  0.46582857    -0.82400
C276        C  0.05710754  0.46878997  0.48494688     0.98200
O277        O  0.09816206  0.49867228  0.48702420    -0.82400
O278        O  0.17766967  0.55567087  0.44562605    -0.85000
C279        C  0.16676715  0.57070962  0.41063898     1.02600
O280        O  0.14616091  0.54524074  0.37643993    -0.77800
O281        O  0.10094892  0.46557231  0.32209676    -0.78000
C282        C  0.05922020  0.44651093  0.32941624     1.02600
Cr283      Cr  0.07376272  0.41419349  0.41632264     1.93700
Cr284      Cr  0.15083687  0.49328886  0.47149562     1.93200
Cr285      Cr  0.15407288  0.49269449  0.36517543     1.39100
O286        O  0.12574744  0.46622601  0.41792218    -1.23100
O287        O  0.94676846  0.39535725  0.07061316    -0.85300
O288        O  0.93228804  0.34669618  0.15370202    -0.82400
C289        C  0.92835274  0.37471100  0.17819741     0.98100
O290        O  0.89598761  0.38090107  0.16991733    -0.82400
O291        O  0.82634300  0.38258242  0.12392445    -0.85100
C292        C  0.81934301  0.39469213  0.08447653     1.02700
O293        O  0.82497940  0.37856086  0.04708560    -0.77800
O294        O  0.90097720  0.38300295  0.01015777    -0.78000
C295        C  0.93644574  0.40859338  0.03390994     1.02600
O296        O  0.91978623  0.31729139  0.02022591    -0.85300
O297        O  0.88272722  0.26925792  0.10324716    -0.82400
C298        C  0.85775717  0.25578843  0.13915950     0.98200
O299        O  0.84616574  0.28073149  0.16181229    -0.82400
O300        O  0.77673898  0.28714519  0.12251908    -0.85000
C301        C  0.75648894  0.27153125  0.08442898     1.02600
O302        O  0.77751699  0.28347257  0.04583005    -0.77800
O303        O  0.84964000  0.28341292  0.00215737    -0.78000
C304        C  0.88854594  0.28987708  0.99446578     1.02600
Cr305      Cr  0.91565014  0.33218323  0.08685648     1.93700
Cr306      Cr  0.83883026  0.33286561  0.14021614     1.93200
Cr307      Cr  0.84048447  0.33199824  0.03078575     1.39100
O308        O  0.86389504  0.33228069  0.08597112    -1.23100
O309        O  0.04264782  0.28045178  0.79864480    -0.85300
O310        O  0.04257847  0.28551872  0.70283905    -0.82400
C311        C  0.04332731  0.27178164  0.66209943     0.98100
O312        O  0.02279117  0.23005897  0.65400421    -0.82400
O313        O  0.05217184  0.17938020  0.70558181    -0.85100
C314        C  0.05552524  0.15701159  0.73875011     1.02700
O315        O  0.02809774  0.14508433  0.77249092    -0.77800
O316        O  0.05800170  0.22639888  0.81257707    -0.78000
C317        C  0.06875006  0.26713234  0.81367479     1.02600
O318        O  0.94503737  0.23260819  0.79845947    -0.85300
O319        O  0.94517266  0.23423283  0.70325010    -0.82400
C320        C  0.92055251  0.19586718  0.68520780     0.98200
O321        O  0.93374799  0.16780144  0.68135651    -0.82400
O322        O  0.95845674  0.11281255  0.72101041    -0.85000
C323        C  0.93251537  0.09724009  0.75617169     1.02600
O324        O  0.93740118  0.12262769  0.79060504    -0.77800
O325        O  0.97223749  0.20293703  0.84555489    -0.78000
C326        C  0.94941107  0.22191791  0.83926982     1.02600
Cr327      Cr  0.99401233  0.25368850  0.75058566     1.93700
Cr328      Cr  0.99259377  0.17523576  0.69479591     1.93200
Cr329      Cr  0.99799428  0.17628522  0.80096521     1.39100
O330        O  0.99487688  0.20226904  0.74858720    -1.23100
O331        O  0.08183406  0.61775475  0.99915903    -0.85300
O332        O  0.14989569  0.61419505  0.95395690    -0.82400
C333        C  0.16606419  0.60919396  0.91633189     0.98100
O334        O  0.16773800  0.63109843  0.88012015    -0.82400
O335        O  0.09022115  0.61985633  0.83658501    -0.85100
C336        C  0.05487463  0.62142252  0.82917802     1.02700
O337        O  0.04610748  0.64582813  0.85494598    -0.77800
O338        O  0.03525631  0.60304389  0.93971756    -0.78000
C339        C  0.04579530  0.59136028  0.97714876     1.02600
O340        O  0.13749871  0.71557917  0.00358708    -0.85300
O341        O  0.20658750  0.70950249  0.95703039    -0.82400
C342        C  0.22490168  0.73129340  0.91996215     0.98200
O343        O  0.20195815  0.72528075  0.88360618    -0.82400
O344        O  0.12708974  0.71696979  0.84206881    -0.85000
C345        C  0.11782021  0.74236754  0.86638983     1.02600
O346        O  0.09500086  0.72866225  0.90341509    -0.77800
O347        O  0.06628779  0.68500247  0.98748447    -0.78000
C348        C  0.09953699  0.71163214  0.01193360     1.02600
Cr349      Cr  0.14200439  0.66490306  0.97401132     1.93700
Cr350      Cr  0.14421778  0.67253503  0.86517225     1.93200
Cr351      Cr  0.06503089  0.66575085  0.92118611     1.39100
O352        O  0.11781167  0.66764333  0.92013020    -1.23100
O353        O  0.94563798  0.76118842  0.17960786    -0.85300
O354        O  0.94287757  0.83161049  0.21990058    -0.82400
C355        C  0.93231306  0.84287554  0.25776859     0.98100
O356        O  0.95027386  0.84170325  0.29592486    -0.82400
O357        O  0.94660878  0.76827017  0.34021334    -0.85100
C358        C  0.95111426  0.73468442  0.34754197     1.02700
O359        O  0.97872459  0.72966872  0.32324670    -0.77800
O360        O  0.93309924  0.71578955  0.23962143    -0.78000
C361        C  0.91988351  0.72586758  0.20290769     1.02600
O362        O  0.04394746  0.81701901  0.17326608    -0.85300
O363        O  0.03828186  0.88592716  0.21732048    -0.82400
C364        C  0.05591757  0.90587084  0.25533369     0.98200
O365        O  0.04565073  0.88490021  0.29354763    -0.82400
O366        O  0.04573667  0.81392454  0.33499826    -0.85000
C367        C  0.07165382  0.80425585  0.31196213     1.02600
O368        O  0.05906413  0.78094856  0.27496951    -0.77800
O369        O  0.01433518  0.74676645  0.19088346    -0.78000
C370        C  0.04007919  0.77922723  0.16540094     1.02600
Cr371      Cr  0.99312764  0.82195160  0.20215223     1.93700
Cr372      Cr  0.99668810  0.82465594  0.31163852     1.93200
Cr373      Cr  0.99625534  0.74786143  0.25713645     1.39100
O374        O  0.99541007  0.79913488  0.25698245    -1.23100
O375        O  0.90743018  0.52762037  0.50992579    -0.85300
O376        O  0.83704502  0.45445350  0.54823762    -0.82400
C377        C  0.82071390  0.43205572  0.58485495     0.98100
O378        O  0.81859444  0.45072891  0.62236714    -0.82400
O379        O  0.89332995  0.52026222  0.66872470    -0.85100
C380        C  0.92656604  0.55855644  0.67748081     1.02700
O381        O  0.93156047  0.59142371  0.65372841    -0.77800
O382        O  0.94949006  0.56095596  0.57204042    -0.78000
C383        C  0.94122732  0.53685647  0.53603698     1.02600
O384        O  0.84871671  0.56747390  0.50054445    -0.85300
O385        O  0.77934803  0.49162044  0.54323317    -0.82400
C386        C  0.75859998  0.49216682  0.57993947     0.98200
O387        O  0.77917190  0.50613746  0.61810245    -0.82400
O388        O  0.84981645  0.57518543  0.66146163    -0.85000
C389        C  0.85724685  0.60925309  0.63715065     1.02600
O390        O  0.88143759  0.62019171  0.60088926    -0.77800
O391        O  0.91875165  0.60910586  0.51962161    -0.78000
C392        C  0.88630878  0.60215509  0.49390523     1.02600
Cr393      Cr  0.84482734  0.51277496  0.52976044     1.93700
Cr394      Cr  0.83787194  0.51493755  0.63849940     1.93200
Cr395      Cr  0.91618125  0.59123947  0.58638869     1.39100
O396        O  0.86538349  0.53864831  0.58480851    -1.23100
C397        C  0.90554698  0.65519488  0.37362831    -0.12200
C398        C  0.92612449  0.70115771  0.38479158     0.04800
C399        C  0.92903611  0.71361738  0.43216682    -0.07500
C400        C  0.91461879  0.68063036  0.46714912    -0.08300
C401        C  0.89415541  0.63471528  0.45598109    -0.02800
C402        C  0.88821639  0.62200918  0.40849721     0.04000
N403        N  0.86833347  0.57588414  0.39515993     0.66500
H404        H  0.90458974  0.64505414  0.33762011     0.15400
H405        H  0.92101559  0.69109980  0.50335904     0.15100
N406        N  0.95012860  0.75979326  0.44551910     0.74200
O407        O  0.82734798  0.55446281  0.38363194    -0.39300
O408        O  0.89332176  0.55976503  0.38554267    -0.39200
O409        O  0.92601933  0.77696057  0.45488683    -0.39900
O410        O  0.99113733  0.78033188  0.45699364    -0.40000
C411        C  0.06500104  0.75561129  0.04231773    -0.12200
C412        C  0.09197097  0.73625689  0.05075932     0.04800
C413        C  0.10548120  0.73548534  0.09712713    -0.07500
C414        C  0.09056599  0.75229573  0.13387985    -0.08300
C415        C  0.06288942  0.77088142  0.12538426    -0.02800
C416        C  0.05105007  0.77339332  0.07880993     0.04000
N417        N  0.02149218  0.79016048  0.06838444     0.66500
H418        H  0.05303489  0.75523877  0.00724740     0.15400
H419        H  0.09895357  0.74892003  0.16955428     0.15100
N420        N  0.13003540  0.71330063  0.10812304     0.74200
O421        O  0.03752932  0.82920109  0.05192073    -0.39300
O422        O  0.97962259  0.76323651  0.06618742    -0.39200
O423        O  0.17150174  0.73623964  0.11728337    -0.39900
O424        O  0.10895736  0.67177796  0.11685473    -0.40000
C425        C  0.00536000  0.59955883  0.70723819    -0.12200
C426        C  0.95999038  0.56710883  0.71527877     0.04800
C427        C  0.94764961  0.54818913  0.76039537    -0.07500
C428        C  0.97968351  0.56440978  0.79683017    -0.08300
C429        C  0.02468268  0.59786411  0.78882264    -0.02800
C430        C  0.03771671  0.61395819  0.74291863     0.04000
N431        N  0.08324491  0.64690783  0.73241648     0.66500
H432        H  0.01570797  0.61479052  0.67302981     0.15400
H433        H  0.96898394  0.55189168  0.83193130     0.15100
N434        N  0.90211484  0.51529595  0.77082419     0.74200
O435        O  0.10989669  0.63421625  0.71803862    -0.39300
O436        O  0.09353595  0.68732382  0.72699566    -0.39200
O437        O  0.89127010  0.47449932  0.77354083    -0.39900
O438        O  0.87567683  0.52768524  0.78661750    -0.40000
C439        C  0.89131340  0.23742607  0.87598005    -0.12200
C440        C  0.93067957  0.23456375  0.88038881     0.04800
C441        C  0.95392623  0.24748541  0.92354465    -0.07500
C442        C  0.93830626  0.26341623  0.96019520    -0.08300
C443        C  0.89956504  0.26730698  0.95566093    -0.02800
C444        C  0.87551106  0.25322927  0.91305236     0.04000
N445        N  0.83655918  0.25723405  0.90566432     0.66500
H446        H  0.87309747  0.22814359  0.84319692     0.15400
H447        H  0.95767804  0.27412875  0.99225601     0.15100
N448        N  0.99565598  0.24825855  0.92966205     0.74200
O449        O  0.84083122  0.29222272  0.88674097    -0.39300
O450        O  0.79798330  0.22279560  0.90870533    -0.39200
O451        O  0.03216785  0.28379761  0.92087749    -0.39900
O452        O  0.99642320  0.21739096  0.95255882    -0.40000
C453        C  0.94522771  0.47631100  0.99590095    -0.12200
C454        C  0.96533025  0.45506315  0.01902302     0.04800
C455        C  0.01139611  0.47978020  0.03090479    -0.07500
C456        C  0.03649541  0.52494922  0.01884922    -0.08300
C457        C  0.01661796  0.54587054  0.99469481    -0.02800
C458        C  0.97033791  0.52144193  0.98390045     0.04000
N459        N  0.94790145  0.54233249  0.96260617     0.66500
H460        H  0.90948974  0.45815708  0.98817901     0.15400
H461        H  0.07209740  0.54331011  0.02694914     0.15100
N462        N  0.03363188  0.45919847  0.05335154     0.74200
O463        O  0.93686007  0.53471714  0.92011545    -0.39300
O464        O  0.93039168  0.55943249  0.98822944    -0.39200
O465        O  0.04993575  0.44018029  0.02886359    -0.39900
O466        O  0.04453287  0.46756044  0.09583301    -0.40000
C467        C  0.03815895  0.51375787  0.53697863    -0.12200
C468        C  0.02379581  0.47967743  0.50344577     0.04800
C469        C  0.98069334  0.46224712  0.48336988    -0.07500
C470        C  0.95502931  0.48231844  0.49355619    -0.08300
C471        C  0.97065575  0.51839362  0.52496842    -0.02800
C472        C  0.01210998  0.53300381  0.54817966     0.04000
N473        N  0.02858945  0.56718843  0.58327986     0.66500
H474        H  0.07063998  0.52662612  0.55375943     0.15400
H475        H  0.92232598  0.46900869  0.47718332     0.15100
N476        N  0.96287883  0.42526869  0.45151556     0.74200
O477        O  0.02806224  0.55612743  0.62535453    -0.39300
O478        O  0.05358012  0.60765429  0.57153123    -0.39200
O479        O  0.94465960  0.38585519  0.46747421    -0.39900
O480        O  0.95432883  0.43115561  0.41021032    -0.40000
C481        C  0.10415981  0.38047657  0.58928877    -0.12200
C482        C  0.09628358  0.36394869  0.54301621     0.04800
C483        C  0.07485617  0.31677211  0.53692688    -0.07500
C484        C  0.06023449  0.28791424  0.57601973    -0.08300
C485        C  0.06587533  0.30440337  0.62224268    -0.02800
C486        C  0.08930168  0.35167067  0.62834122     0.04000
N487        N  0.09725939  0.37137419  0.67387898     0.66500
H488        H  0.12061711  0.41633599  0.59554732     0.15400
H489        H  0.04276180  0.25201493  0.56978430     0.15100
N490        N  0.06643993  0.29720810  0.49130829     0.74200
O491        O  0.13385085  0.38227225  0.69436220    -0.39300
O492        O  0.07267130  0.38633799  0.68889755    -0.39200
O493        O  0.09336052  0.28613911  0.47396990    -0.39900
O494        O  0.02817031  0.28263116  0.47302106    -0.40000
C495        C  0.00620348  0.40699960  0.20882958    -0.12200
C496        C  0.96219806  0.39886941  0.21575858     0.04800
C497        C  0.95134349  0.41014192  0.25954825    -0.07500
C498        C  0.98385899  0.42739864  0.29530963    -0.08300
C499        C  0.02731349  0.43379046  0.28906893    -0.02800
C500        C  0.03849560  0.42408857  0.24446745     0.04000
N501        N  0.08146807  0.42835504  0.23554462     0.66500
H502        H  0.01545112  0.39855311  0.17539314     0.15400
H503        H  0.97438163  0.43529633  0.32956932     0.15100
N504        N  0.90676712  0.40111779  0.26939493     0.74200
O505        O  0.08712299  0.39541627  0.24314170    -0.39300
O506        O  0.11002281  0.46077121  0.21129211    -0.39200
O507        O  0.88014946  0.36612851  0.29175966    -0.39900
O508        O  0.89749224  0.43206175  0.26494563    -0.40000
C509        C  0.81031649  0.19291296  0.66185692    -0.12200
C510        C  0.78278128  0.14747247  0.65076263     0.04800
C511        C  0.80069955  0.11875237  0.64966535    -0.07500
C512        C  0.84600158  0.13586518  0.65931466    -0.08300
C513        C  0.87419320  0.18152751  0.67053286    -0.02800
C514        C  0.85592470  0.21032909  0.67164026     0.04000
N515        N  0.88305508  0.25720698  0.68159802     0.66500
H516        H  0.79659985  0.21518132  0.66131692     0.15400
H517        H  0.85865965  0.11264611  0.65918902     0.15100
N518        N  0.77286778  0.07175707  0.64060401     0.74200
O519        O  0.90001691  0.28468523  0.64830364    -0.39300
O520        O  0.88237117  0.27157644  0.72206683    -0.39200
O521        O  0.77723827  0.05545378  0.60268887    -0.39900
O522        O  0.75063056  0.04577327  0.67362027    -0.40000
C523        C  0.76051837  0.31139486  0.53971725    -0.12200
C524        C  0.75397524  0.28670787  0.58082262     0.04800
C525        C  0.77398234  0.31089604  0.62272885    -0.07500
C526        C  0.79689835  0.35808237  0.62304074    -0.08300
C527        C  0.80135831  0.38245226  0.58236241    -0.02800
C528        C  0.78382792  0.35844351  0.53999685     0.04000
N529        N  0.78658498  0.38107135  0.49725629     0.66500
H530        H  0.74603437  0.29416729  0.50707144     0.15400
H531        H  0.81048753  0.37574012  0.65571332     0.15100
N532        N  0.77071425  0.28855962  0.66578862     0.74200
O533        O  0.81855519  0.39038795  0.46923864    -0.39300
O534        O  0.75320172  0.38405598  0.48378248    -0.39200
O535        O  0.80599436  0.29204470  0.68339722    -0.39900
O536        O  0.73663396  0.27660888  0.69150011    -0.40000
C537        C  0.84791101  0.14305109  0.15655916    -0.12200
C538        C  0.80269289  0.11745046  0.16975206     0.04800
C539        C  0.77609391  0.13783162  0.17437701    -0.07500
C540        C  0.79544739  0.18378843  0.16660914    -0.08300
C541        C  0.84076386  0.20948038  0.15370300    -0.02800
C542        C  0.86721367  0.18890702  0.14867399     0.04000
N543        N  0.91410905  0.21447147  0.13757730     0.66500
H544        H  0.86887175  0.12779913  0.15444248     0.15400
H545        H  0.77461421  0.19911909  0.16864467     0.15100
N546        N  0.72906558  0.11190296  0.18477175     0.74200
O547        O  0.94229126  0.23410246  0.16988661    -0.39300
O548        O  0.92770706  0.21039362  0.09781509    -0.39200
O549        O  0.71452416  0.11637680  0.22380981    -0.39900
O550        O  0.70156261  0.09023043  0.15253030    -0.40000
C551        C  0.71003536  0.06303850  0.36922389    -0.12200
C552        C  0.75401362  0.06968362  0.36797101     0.04800
C553        C  0.78445390  0.09702774  0.40330915    -0.07500
C554        C  0.76940528  0.11370199  0.44036668    -0.08300
C555        C  0.72459058  0.10445899  0.44246007    -0.02800
C556        C  0.69534560  0.07994037  0.40558711     0.04000
N557        N  0.64980062  0.07058912  0.40526017     0.66500
H558        H  0.68599412  0.04334576  0.34226729     0.15400
H559        H  0.79231337  0.13231985  0.46855151     0.15100
N560        N  0.83013285  0.10692732  0.40321048     0.74200
O561        O  0.64002135  0.09592507  0.38261751    -0.39300
O562        O  0.61870149  0.03239202  0.41781200    -0.39200
O563        O  0.86020813  0.14350180  0.38596031    -0.39900
O564        O  0.84146560  0.08457600  0.42895229    -0.40000
C565        C  0.86318200  0.89860281  0.29052496    -0.12200
C566        C  0.85247572  0.90843342  0.24611650     0.04800
C567        C  0.86354078  0.89127608  0.20641670    -0.07500
C568        C  0.88680985  0.86765939  0.21157286    -0.08300
C569        C  0.90043098  0.86073383  0.25571285    -0.02800
C570        C  0.88698921  0.87543845  0.29564545     0.04000
N571        N  0.89851789  0.86873875  0.34169045     0.66500
H572        H  0.85475064  0.91061884  0.32186529     0.15400
H573        H  0.89601594  0.85645527  0.18015146     0.15100
N574        N  0.85331533  0.89904826  0.16025623     0.74200
O575        O  0.93379310  0.89925489  0.36081109    -0.39300
O576        O  0.86951814  0.83687214  0.36619742    -0.39200
O577        O  0.88379649  0.92990250  0.13595988    -0.39900
O578        O  0.81780340  0.86950893  0.14062821    -0.40000
C579        C  0.64074158  0.90602136  0.12353537    -0.12200
C580        C  0.68702148  0.92766060  0.11318668     0.04800
C581        C  0.70036080  0.93213378  0.06590941    -0.07500
C582        C  0.66773702  0.91785227  0.03028630    -0.08300
C583        C  0.62151341  0.89748423  0.04079549    -0.02800
C584        C  0.60808245  0.88973623  0.08804286     0.04000
N585        N  0.56156898  0.86821082  0.10069227     0.66500
H586        H  0.62983542  0.90329628  0.15949687     0.15400
H587        H  0.67870353  0.92434708  0.99415867     0.15100
N588        N  0.74695050  0.95495219  0.05340726     0.74200
O589        O  0.54019428  0.82628131  0.10698006    -0.39300
O590        O  0.54514261  0.89155261  0.11553028    -0.39200
O591        O  0.76419666  0.93285471  0.03710172    -0.39900
O592        O  0.76833659  0.99723801  0.05056161    -0.40000
C593        C  0.58323520  0.01593189  0.79080587    -0.12200
C594        C  0.55729977  0.96963393  0.78123748     0.04800
C595        C  0.54714179  0.95577241  0.73418835    -0.07500
C596        C  0.56470440  0.98778948  0.69801314    -0.08300
C597        C  0.59154116  0.03393997  0.70771727    -0.02800
C598        C  0.59960145  0.04797406  0.75479271     0.04000
N599        N  0.62759880  0.09433436  0.76652913     0.66500
H600        H  0.59252211  0.02726145  0.82653481     0.15400
H601        H  0.55882096  0.97636551  0.66200937     0.15100
N602        N  0.52300739  0.90918254  0.72228512     0.74200
O603        O  0.60968451  0.11727808  0.77802005    -0.39300
O604        O  0.66897671  0.10968000  0.77418066    -0.39200
O605        O  0.48260816  0.89145852  0.70904483    -0.39900
O606        O  0.54430638  0.88850644  0.71595694    -0.40000
C607        C  0.34928130  0.80792641  0.95100459    -0.12200
C608        C  0.37074130  0.80971171  0.90816723     0.04800
C609        C  0.34317045  0.78877664  0.86879404    -0.07500
C610        C  0.29604449  0.76557561  0.87335894    -0.08300
C611        C  0.27479597  0.76172055  0.91672346    -0.02800
C612        C  0.30211017  0.78405024  0.95563303     0.04000
N613        N  0.28264975  0.78296089  0.00015782     0.66500
H614        H  0.36918940  0.82384295  0.98190713     0.15400
H615        H  0.27594993  0.74866855  0.84283261     0.15100
N616        N  0.36217164  0.78904891  0.82419428     0.74200
O617        O  0.28074646  0.75584246  0.03085873    -0.39300
O618        O  0.27650824  0.81488346  0.01190443    -0.39200
O619        O  0.36371407  0.75485200  0.81078687    -0.39900
O620        O  0.36913246  0.81933010  0.79510402    -0.40000
C621        C  0.18837702  0.87662306  0.35960540    -0.12200
C622        C  0.20724927  0.84965048  0.34959746     0.04800
C623        C  0.18077705  0.80720867  0.32893546    -0.07500
C624        C  0.13591974  0.79232460  0.31884580    -0.08300
C625        C  0.11713216  0.81942895  0.32840075    -0.02800
C626        C  0.14364094  0.86200745  0.34897658     0.04000
N627        N  0.12699284  0.89221958  0.35587731     0.66500
H628        H  0.20863810  0.90951779  0.37533888     0.15400
H629        H  0.11577150  0.75948364  0.30296431     0.15100
N630        N  0.19818456  0.77802984  0.31966573     0.74200
O631        O  0.10925410  0.89236512  0.39453097    -0.39300
O632        O  0.14059586  0.92562386  0.32915252    -0.39200
O633        O  0.18367170  0.74253917  0.34327740    -0.39900
O634        O  0.21744447  0.78118461  0.28107639    -0.40000
C635        C  0.47847546  0.95246254  0.49389085    -0.12200
C636        C  0.45069274  0.97094724  0.48742030     0.04800
C637        C  0.46847378  0.01764877  0.49021165    -0.07500
C638        C  0.51401957  0.04529818  0.49938671    -0.08300
C639        C  0.54177538  0.02690662  0.50595502    -0.02800
C640        C  0.52406254  0.98020996  0.50317769     0.04000
N641        N  0.55211248  0.96076129  0.50831184     0.66500
H642        H  0.46498811  0.91655060  0.49049843     0.15400
H643        H  0.52748159  0.08105854  0.50343128     0.15100
N644        N  0.44026518  0.03706405  0.48645459     0.74200
O645        O  0.55317472  0.94391540  0.54702966    -0.39300
O646        O  0.56687556  0.95112006  0.47226853    -0.39200
O647        O  0.42679618  0.04719832  0.52314896    -0.39900
O648        O  0.43660624  0.05222991  0.44765650    -0.40000
C649        C  0.21587132  0.69126944  0.44942201    -0.12200
C650        C  0.23902903  0.71451264  0.40891794     0.04800
C651        C  0.23228023  0.68945477  0.36705783    -0.07500
C652        C  0.20436292  0.64261435  0.36717847    -0.08300
C653        C  0.18388764  0.61958949  0.40839433    -0.02800
C654        C  0.18844567  0.64439075  0.44938737     0.04000
N655        N  0.16563651  0.62211239  0.49141480     0.66500
H656        H  0.21948893  0.70945718  0.48162121     0.15400
H657        H  0.20192574  0.62387538  0.33570258     0.15100
N658        N  0.25633779  0.71011530  0.32501520     0.74200
O659        O  0.18783688  0.62459612  0.52748366    -0.39300
O660        O  0.12324067  0.59848969  0.49196900    -0.39200
O661        O  0.29704451  0.72033833  0.32148761    -0.39900
O662        O  0.23465225  0.70734976  0.28842967    -0.40000
C663        C  0.22821641  0.90540447  0.54251787    -0.12200
C664        C  0.26118469  0.89350599  0.55144082     0.04800
C665        C  0.27650137  0.89666631  0.59770509    -0.07500
C666        C  0.26126657  0.91434909  0.63313467    -0.08300
C667        C  0.22967303  0.92809102  0.62399524    -0.02800
C668        C  0.21176023  0.92168600  0.57836806     0.04000
N669        N  0.17950858  0.93478716  0.56692424     0.66500
H670        H  0.21646876  0.90375990  0.50705381     0.15400
H671        H  0.27524174  0.91851105  0.66792753     0.15100
N672        N  0.30967245  0.88467520  0.60875768     0.74200
O673        O  0.19278495  0.97378535  0.55156675    -0.39300
O674        O  0.13847909  0.90519761  0.56343857    -0.39200
O675        O  0.35041461  0.91498324  0.61247922    -0.39900
O676        O  0.29725903  0.84585917  0.62412794    -0.40000
C677        C  0.16192231  0.86708722  0.86778077    -0.12200
C678        C  0.16994237  0.87681527  0.82019380     0.04800
C679        C  0.15789726  0.84177477  0.78756617    -0.07500
C680        C  0.14062586  0.79799491  0.80335547    -0.08300
C681        C  0.13388910  0.78838179  0.85113153    -0.02800
C682        C  0.14407915  0.82325679  0.88359683     0.04000
N683        N  0.13844297  0.81527647  0.93280489     0.66500
H684        H  0.17071583  0.89378625  0.89302228     0.15400
H685        H  0.13174547  0.77131473  0.77806366     0.11500
N686        N  0.16062507  0.84970118  0.73833394     0.74200
O687        O  0.16815650  0.81211726  0.95558444    -0.39300
O688        O  0.11010033  0.82177446  0.95444302    -0.39200
O689        O  0.18947451  0.84596311  0.71429635    -0.39900
O690        O  0.12887646  0.85130245  0.71800899    -0.40000
C691        C  0.12815602  0.10714689  0.70133975    -0.12200
C692        C  0.13772231  0.09486603  0.74510431     0.04800
C693        C  0.12618484  0.11018442  0.78590292    -0.07500
C694        C  0.10130160  0.13210942  0.78245357    -0.08300
C695        C  0.08892734  0.14146606  0.73900648    -0.02800
C696        C  0.10447171  0.13067188  0.69806712     0.04000
N697        N  0.09356862  0.14019979  0.65299295     0.66500
H698        H  0.13722154  0.09669885  0.66930413     0.15400
H699        H  0.09031449  0.14066040  0.81443563     0.15100
N700        N  0.13863988  0.10319849  0.83136055     0.74200
O701        O  0.05665868  0.11286774  0.63394295    -0.39300
O702        O  0.11903844  0.17763800  0.63401574    -0.39200
O703        O  0.17572718  0.13252440  0.84854242    -0.39900
O704        O  0.10913647  0.07378671  0.85772254    -0.40000
C705        C  0.48526670  0.03271684  0.96787065    -0.12200
C706        C  0.47650264  0.03300340  0.01560483     0.04800
C707        C  0.48476885  0.00613126  0.04655320    -0.07500
C708        C  0.50069849  0.97896322  0.02927925    -0.08300
C709        C  0.50878603  0.97810269  0.98152775    -0.02800
C710        C  0.50090436  0.00521329  0.95047326     0.04000
N711        N  0.50632952  0.00362791  0.90108264     0.66500
H712        H  0.47869221  0.05290098  0.94365920     0.15400
H713        H  0.50716901  0.95874146  0.05355590     0.15100
N714        N  0.47839348  0.00681734  0.09577937     0.74200
O715        O  0.47524258  0.97255418  0.87748472    -0.39300
O716        O  0.53633273  0.03803633  0.88041027    -0.39200
O717        O  0.44466772  0.97409579  0.11461863    -0.39900
O718        O  0.51095179  0.03403170  0.12088943    -0.40000
C719        C  0.30894230  0.06960934  0.96637186    -0.12200
C720        C  0.35457636  0.10115238  0.95808986     0.04800
C721        C  0.36759804  0.11754393  0.91210224    -0.07500
C722        C  0.33590071  0.10018216  0.87544803    -0.08300
C723        C  0.29079196  0.06730761  0.88357100    -0.02800
C724        C  0.27718783  0.05293306  0.92990967     0.04000
N725        N  0.23201059  0.01887383  0.94012605     0.66500
H726        H  0.29813485  0.05632373  0.00125807     0.15400
H727        H  0.34697869  0.11132054  0.84009489     0.15100
N728        N  0.41350157  0.14890226  0.90119408     0.74200
O729        O  0.22166123  0.97815727  0.93840991    -0.39300
O730        O  0.20612956  0.02945229  0.96087715    -0.39200
O731        O  0.43796191  0.13487790  0.88357718    -0.39900
O732        O  0.42619141  0.19019179  0.89912821    -0.40000
C733        C  0.38608846  0.01253331  0.29357484    -0.12200
C734        C  0.39581283  0.97726282  0.29377251     0.04800
C735        C  0.42491490  0.97720057  0.25856691    -0.07500
C736        C  0.44105933  0.01018028  0.22315065    -0.08300
C737        C  0.42827014  0.04306810  0.22150752    -0.02800
C738        C  0.40155109  0.04470520  0.25800984     0.04000
N739        N  0.38900463  0.07854800  0.25898061     0.66500
H740        H  0.36488280  0.01456194  0.32049108     0.15400
H741        H  0.46218398  0.00887676  0.19592037     0.15100
N742        N  0.43687682  0.94300598  0.25685853     0.74200
O743        O  0.35147817  0.07002088  0.24246208    -0.39300
O744        O  0.41079368  0.11285427  0.28437689    -0.39200
O745        O  0.41787651  0.91142577  0.22760621    -0.39900
O746        O  0.47240825  0.94954946  0.27681304    -0.40000
C747        C  0.68233397  0.23015369  0.04304250    -0.12200
C748        C  0.70634123  0.24111471  0.08527112     0.04800
C749        C  0.68123277  0.22714097  0.12758014    -0.07500
C750        C  0.63400965  0.20556695  0.12677790    -0.08300
C751        C  0.61019688  0.19705320  0.08467985    -0.02800
C752        C  0.63510979  0.20866790  0.04227594     0.04000
N753        N  0.61346992  0.20153546  0.99794271     0.66500
H754        H  0.70032263  0.24025883  0.01009764     0.15400
H755        H  0.61597011  0.19652721  0.15973061     0.15100
N756        N  0.70282394  0.23554550  0.17207335     0.74200
O757        O  0.60886760  0.23247267  0.98008578    -0.39300
O758        O  0.60735915  0.16862818  0.97298405    -0.39200
O759        O  0.70882057  0.26920343  0.19561474    -0.39900
O760        O  0.70488745  0.20413879  0.19233322    -0.40000
C761        C  0.27384745  0.13820560  0.15738540    -0.12200
C762        C  0.29111816  0.18187938  0.17527463     0.04800
C763        C  0.33753269  0.20774084  0.18588176    -0.07500
C764        C  0.36544082  0.18978958  0.17777199    -0.08300
C765        C  0.34801428  0.14666816  0.15893147    -0.02800
C766        C  0.30165409  0.12035136  0.14960429     0.04000
N767        N  0.28206428  0.07500334  0.13337966     0.66500
H768        H  0.23823288  0.11710337  0.15012203     0.15400
H769        H  0.40123596  0.21042944  0.18442711     0.15100
N770        N  0.35707817  0.25213794  0.20468613     0.74200
O771        O  0.26998871  0.04370651  0.16268544    -0.39300
O772        O  0.26833025  0.06561990  0.09176523    -0.39200
O773        O  0.36932125  0.25894722  0.24687362    -0.39900
O774        O  0.37142910  0.28507839  0.17718396    -0.40000
C775        C  0.12868233  0.29368866  0.32099971    -0.12200
C776        C  0.17457523  0.30694990  0.32150718     0.04800
C777        C  0.20708587  0.35276399  0.32598408    -0.07500
C778        C  0.19300042  0.38385813  0.33216456    -0.08300
C779        C  0.14695531  0.37001512  0.33492056    -0.02800
C780        C  0.11454084  0.32452989  0.32789395     0.04000
N781        N  0.06724620  0.30879496  0.32818170     0.66500
H782        H  0.10328979  0.25904150  0.31490749     0.15400
H783        H  0.21850323  0.41873739  0.33739893     0.15100
N784        N  0.25429267  0.36818565  0.32652190     0.74200
O785        O  0.04704573  0.30378877  0.28993294    -0.39300
O786        O  0.04457507  0.29035946  0.36449490    -0.39200
O787        O  0.27810191  0.38841118  0.29141448    -0.39900
O788        O  0.27327366  0.36989583  0.36477039    -0.40000
C789        C  0.12751108  0.02869299  0.21862141    -0.12200
C790        C  0.13178983  0.05096886  0.26128230     0.04800
C791        C  0.11640350  0.02522717  0.30244594    -0.07500
C792        C  0.09391086  0.97822256  0.29972303    -0.08300
C793        C  0.08676076  0.95561527  0.25660585    -0.02800
C794        C  0.10566029  0.98165540  0.21595749     0.04000
N795        N  0.10258305  0.96113024  0.17157260     0.66500
H796        H  0.14012090  0.04794835  0.18670385     0.15400
H797        H  0.08011646  0.95935926  0.33165295     0.15100
N798        N  0.11995225  0.04587672  0.34685605     0.74200
O799        O  0.07125543  0.95452655  0.14393448    -0.39300
O800        O  0.13602204  0.95905074  0.15624617    -0.39200
O801        O  0.08624277  0.04668861  0.36344030    -0.39900
O802        O  0.15247963  0.05390522  0.37335636    -0.40000
C803        C  0.96505671  0.11527749  0.27962297    -0.12200
C804        C  0.94217053  0.09773547  0.23732350     0.04800
C805        C  0.96788688  0.10892385  0.19544348    -0.07500
C806        C  0.01513898  0.13347981  0.19733383    -0.08300
C807        C  0.03776813  0.14694446  0.24020930    -0.02800
C808        C  0.01213910  0.13929977  0.28150888     0.04000
N809        N  0.03321267  0.15450625  0.32607821     0.66500
H810        H  0.94645210  0.10842941  0.31211403     0.15400
H811        H  0.03414581  0.13927693  0.16525226     0.15100
N812        N  0.94703378  0.09328597  0.15088704     0.74200
O813        O  0.03429824  0.18840061  0.34452608    -0.39300
O814        O  0.03865358  0.12781607  0.35166104    -0.39200
O815        O  0.94516054  0.05878300  0.13304233    -0.39900
O816        O  0.93970917  0.11886677  0.12555529    -0.40000
C817        C  0.28181585  0.14157592  0.65549018    -0.12200
C818        C  0.30163713  0.12076058  0.67998752     0.04800
C819        C  0.34780595  0.14556168  0.69133554    -0.07500
C820        C  0.37308694  0.19052361  0.67831917    -0.08300
C821        C  0.35339240  0.21119262  0.65331938    -0.02800
C822        C  0.30716175  0.18632939  0.64195193     0.04000
N823        N  0.28514798  0.20598633  0.61734226     0.66500
H824        H  0.24616148  0.12324788  0.64737734     0.15400
H825        H  0.40877840  0.20879464  0.68621927     0.15100
N826        N  0.37016496  0.12507369  0.71360507     0.74200
O827        O  0.27881184  0.19939461  0.57392505    -0.39300
O828        O  0.26293837  0.21992570  0.64002670    -0.39200
O829        O  0.38923529  0.10906699  0.68874598    -0.39900
O830        O  0.37996427  0.13254102  0.75637719    -0.40000
C831        C  0.33512362  0.24338903  0.36961153    -0.12200
C832        C  0.29011069  0.23170792  0.37849182     0.04800
C833        C  0.27759838  0.23345304  0.42542307    -0.07500
C834        C  0.31002861  0.24898285  0.46096228    -0.08300
C835        C  0.35528315  0.26265353  0.45167882    -0.02800
C836        C  0.36753938  0.25864091  0.40556637     0.04000
N837        N  0.41338968  0.27364716  0.39382706     0.66500
H838        H  0.34571193  0.24220791  0.33425826     0.15400
H839        H  0.29997375  0.25216109  0.49606849     0.15100
N840        N  0.23280164  0.22257380  0.43753389     0.74200
O841        O  0.42657819  0.24546671  0.39074532    -0.39300
O842        O  0.43763948  0.31258533  0.37744323    -0.39200
O843        O  0.20673173  0.18533376  0.45656840    -0.39900
O844        O  0.22271241  0.25316282  0.43819095    -0.40000
C845        C  0.63583713  0.44264260  0.61960551    -0.12200
C846        C  0.61220793  0.42450677  0.57779340     0.04800
C847        C  0.63768030  0.43385620  0.53582129    -0.07500
C848        C  0.68499639  0.45798602  0.53708900    -0.08300
C849        C  0.70857869  0.47354801  0.57929819    -0.02800
C850        C  0.68311942  0.46688474  0.62082157     0.04000
N851        N  0.70441375  0.48266195  0.66517639     0.66500
H852        H  0.61758889  0.43679047  0.65221110     0.15400
H853        H  0.70334293  0.46297772  0.50468638     0.15100
N854        N  0.61654724  0.41794008  0.49144044     0.74200
O855        O  0.71103129  0.51987950  0.68067211    -0.39300
O856        O  0.70804732  0.45588655  0.69239175    -0.39200
O857        O  0.61923940  0.44602293  0.46153942    -0.39900
O858        O  0.60645259  0.37897729  0.47815552    -0.40000
C859        C  0.52183201  0.21912864  0.54374511    -0.12200
C860        C  0.51726345  0.23818216  0.58540075     0.04800
C861        C  0.53454967  0.23025635  0.62703990    -0.07500
C862        C  0.55865328  0.20716810  0.62535314    -0.08300
C863        C  0.56648878  0.19137692  0.58294963    -0.02800
C864        C  0.54603864  0.19620762  0.54197713     0.04000
N865        N  0.55115478  0.18029256  0.49748085     0.66500
H866        H  0.50832440  0.22380889  0.51143879     0.15400
H867        H  0.57302506  0.20339781  0.65749268     0.15100
N868        N  0.53029311  0.24740422  0.67117294     0.74200
O869        O  0.51759296  0.14674167  0.47946152    -0.39300
O870        O  0.58339324  0.20648310  0.47142647    -0.39200
O871        O  0.50111622  0.22121152  0.70002838    -0.39900
O872        O  0.56140482  0.28517502  0.68498389    -0.40000
C873        C  0.42307058  0.45342924  0.76322899    -0.12200
C874        C  0.38485924  0.42200694  0.78853103     0.04800
C875        C  0.36546503  0.37592872  0.77628543    -0.07500
C876        C  0.38272820  0.36281998  0.73901701    -0.08300
C877        C  0.42004711  0.39390755  0.71310860    -0.02800
C878        C  0.44104564  0.43971885  0.72615057     0.04000
N879        N  0.47929533  0.47289055  0.70113271     0.66500
H880        H  0.43900080  0.48876405  0.77210624     0.15400
H881        H  0.36625565  0.32744533  0.72995268     0.15100
N882        N  0.32731007  0.34150619  0.80055881     0.74200
O883        O  0.47383211  0.49530294  0.66968483    -0.39300
O884        O  0.51814145  0.48687298  0.71767376    -0.39200
O885        O  0.28857673  0.32540809  0.78292027    -0.39900
O886        O  0.33333192  0.32131455  0.83401756    -0.40000
C887        C  0.24997311  0.38192887  0.09282960    -0.12200
C888        C  0.25885472  0.36936831  0.04895223     0.04800
C889        C  0.24754175  0.32401612  0.04277827    -0.07500
C890        C  0.23053666  0.29347306  0.08014111    -0.08300
C891        C  0.22434529  0.30646445  0.12493970    -0.02800
C892        C  0.23297780  0.35113132  0.13055905     0.04000
N893        N  0.22442616  0.36583489  0.17414183     0.66500
H894        H  0.25771099  0.41623088  0.09843025     0.15400
H895        H  0.22382381  0.25952770  0.07425504     0.15100
N896        N  0.25308068  0.30814561  0.99841909     0.74200
O897        O  0.25698486  0.39573531  0.19722841    -0.39300
O898        O  0.18491034  0.35707106  0.18370623    -0.39200
O899        O  0.28618079  0.30232012  0.99180941    -0.39900
O900        O  0.22037102  0.29081847  0.97036418    -0.40000
C901        C  0.18467860  0.31836924  0.86584944    -0.12200
C902        C  0.20256092  0.36333746  0.85325198     0.04800
C903        C  0.17558506  0.37694874  0.82954003    -0.07500
C904        C  0.13124772  0.34527897  0.81872363    -0.08300
C905        C  0.11342582  0.30005564  0.83100412    -0.02800
C906        C  0.14050849  0.28678297  0.85547810     0.04000
N907        N  0.12413913  0.24149534  0.86997561     0.66500
H908        H  0.20519950  0.30744773  0.88391017     0.15400
H909        H  0.11112480  0.35611035  0.79967857     0.15100
N910        N  0.19195566  0.42281451  0.81771212     0.74200
O911        O  0.13982156  0.21908438  0.85093369    -0.39300
O912        O  0.10360589  0.22842887  0.90845606    -0.39200
O913        O  0.20972301  0.43697112  0.77815400    -0.39900
O914        O  0.17875736  0.44516307  0.84120792    -0.40000
C915        C  0.43237101  0.64641929  0.95451998    -0.12200
C916        C  0.42055343  0.62309318  0.91156693     0.04800
C917        C  0.43476154  0.64866266  0.86995444    -0.07500
C918        C  0.45708335  0.69575975  0.87208081    -0.08300
C919        C  0.46589289  0.71886825  0.91496163    -0.02800
C920        C  0.45455368  0.69350704  0.95659319     0.04000
N921        N  0.46455259  0.71476864  0.00142764     0.66500
H922        H  0.42283434  0.62801856  0.98713197     0.15400
H923        H  0.46566983  0.71419808  0.83951058     0.15100
N924        N  0.42492737  0.62765773  0.82500498     0.74200
O925        O  0.43459894  0.71870531  0.02306744    -0.39300
O926        O  0.49899341  0.72053409  0.02317030    -0.39200
O927        O  0.39319716  0.62590772  0.80119557    -0.39900
O928        O  0.45355545  0.62027381  0.80531339    -0.40000
C929        C  0.21606901  0.53669131  0.95420392    -0.12200
C930        C  0.23536711  0.53269177  0.91238934     0.04800
C931        C  0.22773334  0.55059459  0.87099202    -0.07500
C932        C  0.20236953  0.57235225  0.87276365    -0.08300
C933        C  0.18570446  0.57893081  0.91518319    -0.02800
C934        C  0.19241993  0.56009802  0.95624264     0.04000
N935        N  0.17876075  0.56727048  0.00115405     0.66500
H936        H  0.22137528  0.52366137  0.98649010     0.15400
H937        H  0.19811894  0.58662040  0.84082037     0.15100
N938        N  0.24822625  0.55043702  0.82740386     0.74200
O939        O  0.14476454  0.53551744  0.02071004    -0.39300
O940        O  0.20614432  0.60061994  0.02527590    -0.39200
O941        O  0.22354818  0.53042131  0.79270637    -0.39900
O942        O  0.28900491  0.57943641  0.82052462    -0.40000
C943        C  0.67176036  0.86830645  0.87069429    -0.12200
C944        C  0.63244731  0.85517316  0.84453838     0.04800
C945        C  0.62150794  0.82424589  0.80758671    -0.07500
C946        C  0.64939890  0.80687330  0.79790003    -0.08300
C947        C  0.68870506  0.81992688  0.82390803    -0.02800
C948        C  0.69996355  0.85116049  0.86069963     0.04000
N949        N  0.74004014  0.86654356  0.88774908     0.66500
H950        H  0.68087630  0.89205851  0.89928861     0.15400
H951        H  0.64005008  0.78309731  0.76930161     0.15100
N952        N  0.58215124  0.80966578  0.77959186     0.74200
O953        O  0.77540547  0.90193656  0.87578528    -0.39300
O954        O  0.73746570  0.85082967  0.92813801    -0.39200
O955        O  0.58569653  0.82705509  0.73993807    -0.39900
O956        O  0.54660207  0.77373034  0.78985854    -0.40000
C957        C  0.81521480  0.69152262  0.63809295    -0.12200
C958        C  0.80703789  0.69273275  0.68576341     0.04800
C959        C  0.81468810  0.66576741  0.71722479    -0.07500
C960        C  0.83006870  0.63798478  0.70024577    -0.08300
C961        C  0.83896417  0.63732294  0.65263206    -0.02800
C962        C  0.83094269  0.66404391  0.62114497     0.04000
N963        N  0.83756050  0.66320886  0.57187636     0.66500
H964        H  0.80884353  0.71164032  0.61360526     0.15400
H965        H  0.83673367  0.61811921  0.72481433     0.15100
N966        N  0.80959319  0.66791623  0.76662764     0.74200
O967        O  0.80938858  0.62992854  0.54821448    -0.39300
O968        O  0.86370351  0.69947443  0.55120871    -0.39200
O969        O  0.78348432  0.63243062  0.78851843    -0.39900
O970        O  0.83861663  0.70169035  0.78907538    -0.40000
C971        C  0.86473778  0.97563053  0.79581030    -0.12200
C972        C  0.85272919  0.95270133  0.75260384     0.04800
C973        C  0.86134307  0.97827466  0.71141594    -0.07500
C974        C  0.88465884  0.02534626  0.71389864    -0.08300
C975        C  0.89960731  0.04817042  0.75683791    -0.02800
C976        C  0.88775053  0.02270001  0.79827254     0.04000
N977        N  0.90187858  0.04384653  0.84293733     0.66500
H978        H  0.85836532  0.95709005  0.82812094     0.15400
H979        H  0.89246877  0.04424374  0.68164089     0.15100
N980        N  0.84714632  0.95724930  0.66669465     0.74200
O981        O  0.87548850  0.05160155  0.86675498    -0.39300
O982        O  0.93597087  0.04611809  0.86224597    -0.39200
O983        O  0.81111497  0.95208800  0.64926621    -0.39900
O984        O  0.87482477  0.95327759  0.64083937    -0.40000
C985        C  0.96794255  0.86003809  0.71323184    -0.12200
C986        C  0.94601448  0.85668995  0.75612471     0.04800
C987        C  0.97285981  0.87363921  0.79665549    -0.07500
C988        C  0.01991266  0.89703104  0.79291521    -0.08300
C989        C  0.04189847  0.90433387  0.74939327    -0.02800
C990        C  0.01521389  0.88332583  0.70959467     0.04000
N991        N  0.03529548  0.88529697  0.66520256     0.66500
H992        H  0.94839616  0.84602715  0.68168062     0.15400
H993        H  0.03923281  0.91141373  0.82452148     0.15100
N994        N  0.95320882  0.86909222  0.84187069     0.74200
O995        O  0.03956549  0.91443123  0.63583103    -0.39300
O996        O  0.03939367  0.85250780  0.65188449    -0.39200
O997        O  0.94858667  0.83786501  0.86842931    -0.39900
O998        O  0.94924716  0.90096219  0.85852731    -0.40000
C999        C  0.86462017  0.69925217  0.13924499    -0.12200
C1000       C  0.87418447  0.69598561  0.18603624     0.04800
C1001       C  0.83954388  0.66540448  0.21578997    -0.07500
C1002       C  0.79653007  0.63838172  0.19800933    -0.08300
C1003       C  0.78687090  0.64171851  0.15121940    -0.02800
C1004       C  0.82145318  0.67270327  0.12160657     0.04000
N1005       N  0.81379714  0.67813269  0.07369383     0.66500
H1006       H  0.89084126  0.72252986  0.11589855     0.15400
H1007       H  0.77027762  0.61536072  0.22149081     0.15100
N1008       N  0.84670491  0.66222859  0.26443314     0.74200
O1009       O  0.81927710  0.71554857  0.06068056    -0.39300
O1010       O  0.81465984  0.65167283  0.04356929    -0.39200
O1011       O  0.84594587  0.69026399  0.29246522    -0.39900
O1012       O  0.84193873  0.62587781  0.28010152    -0.40000
C1013       C  0.75623923  0.67889077  0.96337472    -0.12200
C1014       C  0.72919624  0.63312465  0.95238991     0.04800
C1015       C  0.71995891  0.62051571  0.90504858    -0.07500
C1016       C  0.73513138  0.65377493  0.87032432    -0.08300
C1017       C  0.76192076  0.69965315  0.88144089    -0.02800
C1018       C  0.77396362  0.71192785  0.92844892     0.04000
N1019       N  0.80049535  0.75801749  0.94179317     0.66500
H1020       H  0.76173204  0.68923286  0.99954615     0.15400
H1021       H  0.72446738  0.64377648  0.83455103     0.15100
N1022       N  0.69182894  0.57453949  0.89201589     0.74200
O1023       O  0.78124409  0.77937815  0.95453114    -0.39300
O1024       O  0.84192678  0.77425367  0.94989321    -0.39200
O1025       O  0.65047981  0.55956245  0.88458101    -0.39900
O1026       O  0.70967191  0.55195815  0.87890286    -0.40000
C1027       C  0.46170732  0.50732444  0.03044122    -0.12200
C1028       C  0.45037662  0.49338962  0.98404505     0.04800
C1029       C  0.48403138  0.49759471  0.95257215    -0.07500
C1030       C  0.52767846  0.51351075  0.96861327    -0.08300
C1031       C  0.53882344  0.52619092  0.01545104    -0.02800
C1032       C  0.50546709  0.52380167  0.04638704     0.04000
N1033       N  0.51495890  0.53742703  0.09416086     0.66500
H1034       H  0.43631700  0.50481424  0.05485849     0.15400
H1035       H  0.55302235  0.51617900  0.94404694     0.15100
N1036       N  0.47501949  0.48766752  0.90390149     0.74200
O1037       O  0.51727256  0.57375306  0.10657972    -0.39300
O1038       O  0.50912370  0.50870184  0.12478668    -0.39200
O1039       O  0.48353123  0.51905966  0.87570320    -0.39900
O1040       O  0.46745763  0.45015821  0.88830989    -0.40000
C1041       C  0.77840902  0.47757934  0.11287240    -0.12200
C1042       C  0.75125688  0.47228763  0.07362249     0.04800
C1043       C  0.75136846  0.44525577  0.03629725    -0.07500
C1044       C  0.77575217  0.42262461  0.04001622    -0.08300
C1045       C  0.80045362  0.42556449  0.08047454    -0.02800
C1046       C  0.80278039  0.45475900  0.11653462     0.04000
N1047       N  0.83015493  0.46222311  0.15682126     0.66500
H1048       H  0.78009207  0.49889187  0.14169030     0.15400
H1049       H  0.77336266  0.40069484  0.01151532     0.15100
N1050       N  0.72507482  0.43823291  0.99520492     0.74200
O1051       O  0.87130175  0.49190047  0.15548308    -0.39300
O1052       O  0.81173268  0.44638371  0.19574368    -0.39200
O1053       O  0.74421081  0.45891101  0.95819287    -0.39900
O1054       O  0.68569807  0.40486923  0.99310655    -0.40000
C1055       C  0.55472001  0.36108634  0.12756313    -0.12200
C1056       C  0.56516804  0.38435473  0.08504776     0.04800
C1057       C  0.54784030  0.35916793  0.04325834    -0.07500
C1058       C  0.52379862  0.31208321  0.04459928    -0.08300
C1059       C  0.51574324  0.28872341  0.08687807    -0.02800
C1060       C  0.53022019  0.31402965  0.12898322     0.04000
N1061       N  0.52294699  0.29280256  0.17352172     0.66500
H1062       H  0.56703315  0.37944961  0.16010053     0.15400
H1063       H  0.51269566  0.29372578  0.01192605     0.15100
N1064       N  0.55642376  0.38051932  0.99867477     0.74200
O1065       O  0.55303843  0.28629112  0.19064364    -0.39300
O1066       O  0.49165702  0.28959029  0.19946761    -0.39200
O1067       O  0.58672975  0.38158325  0.97268987    -0.39900
O1068       O  0.52837897  0.39014615  0.98182688    -0.40000
C1069       C  0.58165189  0.57069075  0.29832955    -0.12200
C1070       C  0.56200930  0.59728849  0.28895454     0.04800
C1071       C  0.55783741  0.60670692  0.24191535    -0.07500
C1072       C  0.57601585  0.59252477  0.20599617    -0.08300
C1073       C  0.59662832  0.56687334  0.21522653    -0.02800
C1074       C  0.59822086  0.55489606  0.26205614     0.04000
N1075       N  0.62057404  0.53071552  0.27392549     0.66500
H1076       H  0.58593160  0.56374376  0.33427533     0.15400
H1077       H  0.57556678  0.60318213  0.17060606     0.15100
N1078       N  0.53842224  0.63365761  0.23018250     0.74200
O1079       O  0.66250353  0.55196547  0.28104564    -0.39300
O1080       O  0.59763214  0.49033330  0.28679696    -0.39200
O1081       O  0.56383219  0.67478397  0.22129405    -0.39900
O1082       O  0.49748168  0.61469986  0.21858358    -0.40000
C1083       C  0.67730373  0.75256464  0.54052310    -0.12200
C1084       C  0.63131219  0.73668047  0.54901368     0.04800
C1085       C  0.61791020  0.73947871  0.59507356    -0.07500
C1086       C  0.64982149  0.75527930  0.63162455    -0.08300
C1087       C  0.69555000  0.76989871  0.62307371    -0.02800
C1088       C  0.70928075  0.76950854  0.57667873     0.04000
N1089       N  0.75493410  0.78244262  0.56621789     0.66500
H1090       H  0.68833925  0.74999263  0.50570475     0.15400
H1091       H  0.63852017  0.75461213  0.66718695     0.15100
N1092       N  0.57157293  0.72275137  0.60607497     0.74200
O1093       O  0.76684289  0.75319593  0.56672643    -0.39300
O1094       O  0.78003686  0.81978729  0.54690231    -0.39200
O1095       O  0.54844233  0.68392364  0.62310645    -0.39900
O1096       O  0.55642878  0.74943554  0.60717661    -0.40000
C1097       C  0.62262957  0.80419242  0.31287315    -0.12200
C1098       C  0.63942164  0.78869658  0.34821761     0.04800
C1099       C  0.68164769  0.81846776  0.36849748    -0.07500
C1100       C  0.70617773  0.86259506  0.35252817    -0.08300
C1101       C  0.68921739  0.87795207  0.31699409    -0.02800
C1102       C  0.64663846  0.84820065  0.29746742     0.04000
N1103       N  0.62682028  0.86174123  0.26195292     0.66500
H1104       H  0.58991902  0.78232719  0.29743640     0.15400
H1105       H  0.73886942  0.88472401  0.36784476     0.15100
N1106       N  0.70008303  0.80487244  0.40544139     0.74200
O1107       O  0.62504448  0.84785029  0.22071510    -0.39300
O1108       O  0.60181206  0.87731820  0.27362015    -0.39200
O1109       O  0.72927626  0.79391028  0.39614959    -0.39900
O1110       O  0.69498799  0.81353403  0.44715622    -0.40000
C1111       C  0.51991172  0.51534673  0.45794455    -0.12200
C1112       C  0.51527777  0.54459505  0.48899322     0.04800
C1113       C  0.49190193  0.52778964  0.53136132    -0.07500
C1114       C  0.47354644  0.48255519  0.54160834    -0.08300
C1115       C  0.47777808  0.45319308  0.51042776    -0.02800
C1116       C  0.50110375  0.46993685  0.46799782     0.04000
N1117       N  0.50459347  0.44133066  0.43388961     0.66500
H1118       H  0.53698098  0.52729224  0.42469989     0.15400
H1119       H  0.45628249  0.47064540  0.57474250     0.15100
N1120       N  0.48644665  0.55590654  0.56452388     0.74200
O1121       O  0.47241855  0.41949856  0.40595217    -0.39300
O1122       O  0.54252209  0.44541141  0.42517362    -0.39200
O1123       O  0.44834278  0.55258160  0.56961190    -0.39900
O1124       O  0.51688461  0.57744089  0.59432612    -0.40000
C1125       C  0.46379024  0.77314760  0.37494653    -0.12200
C1126       C  0.47339372  0.76105507  0.41866920     0.04800
C1127       C  0.46166031  0.77632123  0.45933943    -0.07500
C1128       C  0.43930084  0.80094338  0.45565269    -0.08300
C1129       C  0.42672103  0.81023172  0.41204810    -0.02800
C1130       C  0.44051817  0.79699020  0.37124947     0.04000
N1131       N  0.42931283  0.80524599  0.32571645     0.66500
H1132       H  0.47241041  0.76214180  0.34299623     0.15400
H1133       H  0.42982393  0.81094460  0.48772837     0.15100
N1134       N  0.47066096  0.76594680  0.50491702     0.74200
O1135       O  0.45734929  0.83979400  0.30368355    -0.39300
O1136       O  0.39667513  0.77389808  0.30399888    -0.39200
O1137       O  0.50348483  0.79571428  0.52786258    -0.39900
O1138       O  0.44052803  0.73180635  0.52587393    -0.40000
C1139       C  0.30434910  0.54641211  0.38006940    -0.12200
C1140       C  0.28217751  0.53008488  0.42317882     0.04800
C1141       C  0.30860937  0.53385538  0.46248768    -0.07500
C1142       C  0.35593208  0.55622923  0.45859643    -0.08300
C1143       C  0.37823262  0.57577345  0.41612667    -0.02800
C1144       C  0.35139847  0.56919983  0.37621814     0.04000
N1145       N  0.37105838  0.58741161  0.33177555     0.66500
H1146       H  0.28506453  0.54313934  0.34889822     0.15400
H1147       H  0.37533418  0.56025215  0.48986685     0.15100
N1148       N  0.28848568  0.51802379  0.50728542     0.74200
O1149       O  0.37609356  0.56287617  0.30231928    -0.39300
O1150       O  0.37392855  0.62369912  0.31852003    -0.39200
O1151       O  0.28505789  0.48231472  0.52326698    -0.39900
O1152       O  0.28338134  0.54414170  0.53442810    -0.40000
loop_ 
_geom_bond_atom_site_label_1 
_geom_bond_atom_site_label_2 
_geom_bond_distance 
_geom_bond_site_symmetry_2 
_ccdc_geom_bond_type 
O1          Cr19   1.945       .  S
O1            C9   1.260       .  A
O2          Cr19   1.996       .  S
O2            C3   1.257       .  A
C3            O4   1.262       .  A
C3         C1084   1.497       .  S
O4          Cr20   2.015       .  S
O5          Cr20   2.014       .  S
O5            C6   1.269       .  A
C6            O7   1.261       .  A
C6         C1126   1.500       .  S
O7          Cr21   1.980       .  S
O8          Cr21   2.007       .  S
O8            C9   1.275       .  A
C9         C1098   1.467       .  S
O10         Cr19   2.006       .  S
O10          C18   1.258       .  A
O11         Cr19   1.933       .  S
O11          C12   1.261       .  A
C12          O13   1.274       .  A
C12        C1112   1.466       .  S
O13         Cr20   2.012       .  S
O14         Cr20   1.983       .  S
O14          C15   1.261       .  A
C15          O16   1.268       .  A
C15        C1143   1.503       .  S
O16         Cr21   2.011       .  S
O17         Cr21   2.012       .  S
O17          C18   1.262       .  A
C18        C1070   1.495       .  S
Cr19         O22   1.779       .  S
Cr20         O22   1.779       .  S
Cr21         O22   1.776       .  S
O23         Cr41   1.949       .  S
O23          C31   1.260       .  A
O24         Cr41   1.997       .  S
O24          C25   1.257   1_554  A
C25          O26   1.261       .  A
C25        C1014   1.485       .  S
O26         Cr42   2.004   1_556  S
O27         Cr42   2.020       .  S
O27          C28   1.269       .  A
C28          O29   1.261       .  A
C28        C1042   1.504       .  S
O29         Cr43   1.980       .  S
O30         Cr43   2.003       .  S
O30          C31   1.273       .  A
C31        C1003   1.463       .  S
O32         Cr41   2.003       .  S
O32          C40   1.259       .  A
O33         Cr41   1.949       .  S
O33          C34   1.261       .  A
C34          O35   1.275       .  A
C34        C1031   1.468       .  S
O35         Cr42   2.011       .  S
O36         Cr42   1.970       .  S
O36          C37   1.257       .  A
C37          O38   1.269       .  A
C37        C1056   1.493       .  S
O38         Cr43   2.011       .  S
O39         Cr43   2.015       .  S
O39          C40   1.263       .  A
C40        C1073   1.498       .  S
Cr41         O44   1.775       .  S
Cr42         O44   1.776       .  S
Cr43         O44   1.774       .  S
O45         Cr63   1.933       .  S
O45          C53   1.263       .  A
O46         Cr63   2.001       .  S
O46          C47   1.256       .  A
C47          O48   1.260       .  A
C47        C1087   1.491       .  S
O48         Cr64   2.010       .  S
O49         Cr64   2.008       .  S
O49          C50   1.267       .  A
C50          O51   1.261       .  A
C50         C972   1.495       .  S
O51         Cr65   1.975       .  S
O52         Cr65   2.012       .  S
O52          C53   1.274       .  A
C53         C947   1.466       .  S
O54         Cr63   1.990       .  S
O54          C62   1.254       .  A
O55         Cr63   1.939       .  S
O55          C56   1.261       .  A
C56          O57   1.275       .  A
C56         C958   1.456       .  S
O57         Cr64   2.005       .  S
O58         Cr64   1.980       .  S
O58          C59   1.260       .  A
C59          O60   1.266       .  A
C59         C986   1.499       .  S
O60         Cr65   2.003       .  S
O61         Cr65   2.008       .  S
O61          C62   1.259       .  A
C62        C1017   1.486       .  S
Cr63         O66   1.776       .  S
Cr64         O66   1.776       .  S
Cr65         O66   1.777       .  S
O67         Cr85   2.021       .  S
O67          C75   1.282       .  A
O68         Cr85   1.990       .  S
O68          C69   1.262       .  A
C69          O70   1.267       .  A
C69         C930   1.499       .  S
O70         Cr86   1.993       .  S
O71         Cr86   2.036   1_554  S
O71          C72   1.259       .  A
C72          O73   1.248   1_554  A
C72         C888   1.508       .  S
O73         Cr87   1.990       .  S
O74         Cr87   1.933       .  S
O74          C75   1.271       .  A
C75         C902   1.456       .  S
O76         Cr85   2.029       .  S
O76          C84   1.257       .  A
O77         Cr85   1.996       .  S
O77          C78   1.265       .  A
C78          O79   1.265       .  A
C78         C916   1.500       .  S
O79         Cr86   1.991       .  S
O80         Cr86   2.018       .  S
O80          C81   1.284       .  A
C81          O82   1.269       .  A
C81        C1028   1.462       .  S
O82         Cr87   1.941       .  S
O83         Cr87   1.978       .  S
O83          C84   1.245       .  A
C84         C874   1.504       .  S
Cr85         O88   1.773       .  S
Cr86         O88   1.766       .  S
Cr87         O88   1.767       .  S
O89        Cr107   2.030       .  S
O89          C97   1.284       .  A
O90        Cr107   1.986       .  S
O90          C91   1.262       .  A
C91          O92   1.268       .  A
C91         C860   1.500       .  S
O92        Cr108   1.999       .  S
O93        Cr108   2.012       .  S
O93          C94   1.255       .  A
C94          O95   1.250       .  A
C94         C835   1.490       .  S
O95        Cr109   1.985       .  S
O96        Cr109   1.941       .  S
O96          C97   1.267       .  A
C97         C821   1.467       .  S
O98        Cr107   2.027       .  S
O98         C106   1.256       .  A
O99        Cr107   2.006       .  S
O99         C100   1.268       .  A
C100        O101   1.259       .  A
C100        C846   1.503       .  S
O101       Cr108   1.981       .  S
O102       Cr108   2.020       .  S
O102        C103   1.281       .  A
C103        O104   1.268       .  A
C103       C1115   1.466       .  S
O104       Cr109   1.931       .  S
O105       Cr109   1.989       .  S
O105        C106   1.251       .  A
C106        C877   1.495       .  S
Cr107       O110   1.773       .  S
Cr108       O110   1.775       .  S
Cr109       O110   1.775       .  S
O111       Cr129   1.945       .  S
O111        C119   1.259       .  A
O112       Cr129   2.012       .  S
O112        C113   1.270       .  A
C113        O114   1.267       .  A
C113        C790   1.487       .  S
O114       Cr130   1.990       .  S
O115       Cr130   2.004       .  S
O115        C116   1.260       .  A
C116        O117   1.260       .  A
C116        C832   1.502       .  S
O117       Cr131   1.997       .  S
O118       Cr131   1.990       .  S
O118        C119   1.264       .  A
C119        C762   1.470       .  S
O120       Cr129   2.022       .  S
O120        C128   1.267       .  A
O121       Cr129   1.997       .  S
O121        C122   1.267       .  A
C122        O123   1.264       .  A
C122        C807   1.485       .  S
O123       Cr130   1.999       .  S
O124       Cr130   1.937       .  S
O124        C125   1.259       .  A
C125        O126   1.263       .  A
C125        C776   1.458       .  S
O126       Cr131   1.983       .  S
O127       Cr131   2.008       .  S
O127        C128   1.261       .  A
C128        C891   1.512       .  S
Cr129       O132   1.770       .  S
Cr130       O132   1.776       .  S
Cr131       O132   1.784       .  S
O133       Cr151   1.939       .  S
O133        C141   1.263       .  A
O134       Cr151   2.001       .  S
O134        C135   1.254       .  A
C135        O136   1.256       .  A
C135        C737   1.487       .  S
O136       Cr152   2.010       .  S
O137       Cr152   2.010       .  S
O137        C138   1.269       .  A
C138        O139   1.258       .  A
C138        C751   1.499       .  S
O139       Cr153   1.975       .  S
O140       Cr153   2.010       .  S
O140        C141   1.276       .  A
C141        C706   1.460       .  S
O142       Cr151   2.003       .  S
O142        C150   1.258   1_554  A
O143       Cr151   1.931       .  S
O143        C144   1.263       .  A
C144        O145   1.278       .  A
C144        C765   1.456       .  S
O145       Cr152   2.022       .  S
O146       Cr152   1.971       .  S
O146        C147   1.258       .  A
C147        O148   1.269       .  A
C147       C1059   1.495       .  S
O148       Cr153   2.007       .  S
O149       Cr153   2.013       .  S
O149        C150   1.260   1_554  A
C150        C720   1.498       .  S
Cr151       O154   1.777       .  S
Cr152       O154   1.775       .  S
Cr153       O154   1.777       .  S
O155       Cr173   1.949   1_545  S
O155        C163   1.267       .  A
O156       Cr173   2.009   1_545  S
O156        C157   1.256       .  A
C157        O158   1.257       .  A
C157        C723   1.492       .  S
O158       Cr174   2.006   1_545  S
O159       Cr174   1.998   1_545  S
O159        C160   1.266       .  A
C160        O161   1.262       .  A
C160        C692   1.499       .  S
O161       Cr175   1.986       .  S
O162       Cr175   2.019       .  S
O162        C163   1.280       .  A
C163        C818   1.466       .  S
O164       Cr173   1.998       .  S
O164        C172   1.255       .  A
O165       Cr173   1.946       .  S
O165        C166   1.264       .  A
C166        O167   1.275       .  A
C166        C678   1.457       .  S
O167       Cr174   2.007       .  S
O168       Cr174   1.969       .  S
O168        C169   1.259       .  A
C169        O170   1.268       .  A
C169        C989   1.499       .  S
O170       Cr175   2.016   1_565  S
O171       Cr175   2.013   1_565  S
O171        C172   1.258       .  A
C172        C667   1.499       .  S
Cr173       O176   1.780       .  S
Cr174       O176   1.777       .  S
Cr175       O176   1.779   1_545  S
O177       Cr195   1.932       .  S
O177        C185   1.265       .  A
O178       Cr195   1.987       .  S
O178        C179   1.252       .  A
C179        O180   1.257       .  A
C179        C734   1.503       .  S
O180       Cr196   2.022       .  S
O181       Cr196   2.006       .  S
O181        C182   1.266       .  A
C182        O183   1.262       .  A
C182       C1129   1.502       .  S
O183       Cr197   1.978       .  S
O184       Cr197   2.015       .  S
O184        C185   1.280       .  A
C185        C636   1.446       .  S
O186       Cr195   1.994       .  S
O186        C194   1.250       .  A
O187       Cr195   1.930       .  S
O187        C188   1.266       .  A
C188        O189   1.281       .  A
C188        C622   1.454       .  S
O189       Cr196   2.023       .  S
O190       Cr196   1.983       .  S
O190        C191   1.261       .  A
C191        O192   1.267       .  A
C191        C650   1.495       .  S
O192       Cr197   1.997       .  S
O193       Cr197   2.017       .  S
O193        C194   1.256       .  A
C194        C664   1.491       .  S
Cr195       O198   1.778       .  S
Cr196       O198   1.780       .  S
Cr197       O198   1.771       .  S
O199       Cr217   2.008       .  S
O199        C207   1.273       .  A
O200       Cr217   1.981       .  S
O200        C201   1.261       .  A
C201        O202   1.265       .  A
C201        C919   1.496       .  S
O202       Cr218   2.005       .  S
O203       Cr218   2.005       .  S
O203        C204   1.259   1_556  A
C204        O205   1.258   1_554  A
C204        C583   1.489       .  S
O205       Cr219   2.003       .  S
O206       Cr219   1.937       .  S
O206        C207   1.261       .  A
C207        C944   1.465       .  S
O208       Cr217   2.014       .  S
O208        C216   1.263       .  A
O209       Cr217   2.019       .  S
O209        C210   1.270       .  A
C210        O211   1.261       .  A
C210        C608   1.503       .  S
O211       Cr218   1.976       .  S
O212       Cr218   2.006       .  S
O212        C213   1.274       .  A
C213        O214   1.259       .  A
C213        C709   1.458       .  S
O214       Cr219   1.942       .  S
O215       Cr219   1.995       .  S
O215        C216   1.257       .  A
C216        C594   1.493       .  S
Cr217       O220   1.776       .  S
Cr218       O220   1.775       .  S
Cr219       O220   1.777       .  S
O221       Cr239   2.022   1_565  S
O221        C229   1.281       .  A
O222       Cr239   1.983   1_565  S
O222        C223   1.263       .  A
C223        O224   1.269       .  A
C223        C566   1.504       .  S
O224       Cr240   2.011       .  S
O225       Cr240   2.012       .  S
O225        C226   1.257       .  A
C226        O227   1.250       .  A
C226        C580   1.489       .  S
O227       Cr241   1.985       .  S
O228       Cr241   1.937       .  S
O228        C229   1.265       .  A
C229       C1101   1.470       .  S
O230       Cr239   2.022       .  S
O230        C238   1.257       .  A
O231       Cr239   1.992       .  S
O231        C232   1.265       .  A
C232        O233   1.259       .  A
C232        C804   1.495       .  S
O233       Cr240   1.980   1_545  S
O234       Cr240   2.019   1_545  S
O234        C235   1.281       .  A
C235        O236   1.267       .  A
C235        C538   1.455       .  S
O236       Cr241   1.938   1_545  S
O237       Cr241   1.992   1_545  S
O237        C238   1.253       .  A
C238        C552   1.506       .  S
Cr239       O242   1.776   1_545  S
Cr240       O242   1.779       .  S
Cr241       O242   1.775       .  S
O243       Cr261   2.011       .  S
O243        C251   1.275       .  A
O244       Cr261   1.983       .  S
O244        C245   1.259       .  A
C245        O246   1.269       .  A
C245        C863   1.503       .  S
O246       Cr262   2.011       .  S
O247       Cr262   2.002       .  S
O247        C248   1.259       .  A
C248        O249   1.258       .  A
C248        C597   1.489       .  S
O249       Cr263   2.004       .  S
O250       Cr263   1.934       .  S
O250        C251   1.260       .  A
C251        C639   1.445       .  S
O252       Cr261   2.013       .  S
O252        C260   1.260       .  A
O253       Cr261   2.011       .  S
O253        C254   1.269       .  A
C254        O255   1.257       .  A
C254        C524   1.499       .  S
O255       Cr262   1.974       .  S
O256       Cr262   2.011       .  S
O256        C257   1.274       .  A
C257        O258   1.262       .  A
C257        C510   1.452       .  S
O258       Cr263   1.940       .  S
O259       Cr263   2.003       .  S
O259        C260   1.256       .  A
C260        C555   1.490       .  S
Cr261       O264   1.779       .  S
Cr262       O264   1.780       .  S
Cr263       O264   1.784       .  S
O265       Cr283   1.989       .  S
O265        C273   1.266       .  A
O266       Cr283   2.005       .  S
O266        C267   1.262       .  A
C267        O268   1.264       .  A
C267        C482   1.513       .  S
O268       Cr284   2.009       .  S
O269       Cr284   2.015       .  S
O269        C270   1.268       .  A
C270        O271   1.264       .  A
C270       C1140   1.499       .  S
O271       Cr285   1.997       .  S
O272       Cr285   1.936       .  S
O272        C273   1.259       .  A
C273        C779   1.458       .  S
O274       Cr283   1.999       .  S
O274        C282   1.259       .  A
O275       Cr283   1.985       .  S
O275        C276   1.263       .  A
C276        O277   1.262       .  A
C276        C468   1.466       .  S
O277       Cr284   1.956       .  S
O278       Cr284   2.008       .  S
O278        C279   1.269       .  A
C279        O280   1.266       .  A
C279        C653   1.479       .  S
O280       Cr285   1.983       .  S
O281       Cr285   2.003       .  S
O281        C282   1.258       .  A
C282        C499   1.499       .  S
Cr283       O286   1.786       .  S
Cr284       O286   1.775       .  S
Cr285       O286   1.779       .  S
O287       Cr305   1.939       .  S
O287        C295   1.267       .  A
O288       Cr305   1.987       .  S
O288        C289   1.250       .  A
C289        O290   1.255       .  A
C289        C496   1.493       .  S
O290       Cr306   2.013       .  S
O291       Cr306   2.017       .  S
O291        C292   1.269       .  A
C292        O293   1.261       .  A
C292       C1045   1.501       .  S
O293       Cr307   1.978       .  S
O294       Cr307   2.021       .  S
O294        C295   1.283       .  A
C295        C454   1.461       .  S
O296       Cr305   1.995       .  S
O296        C304   1.252   1_554  A
O297       Cr305   1.933       .  S
O297        C298   1.267       .  A
C298        O299   1.285       .  A
C298        C541   1.458       .  S
O299       Cr306   2.031       .  S
O300       Cr306   1.978       .  S
O300        C301   1.259       .  A
C301        O302   1.269       .  A
C301        C748   1.501       .  S
O302       Cr307   2.006       .  S
O303       Cr307   2.019       .  S
O303        C304   1.257   1_554  A
C304        C443   1.504       .  S
Cr305       O308   1.778       .  S
Cr306       O308   1.777       .  S
Cr307       O308   1.772       .  S
O309       Cr327   1.997   1_455  S
O309        C317   1.270       .  A
O310       Cr327   2.003   1_455  S
O310        C311   1.261       .  A
C311        O312   1.263       .  A
C311        C485   1.514       .  S
O312       Cr328   2.011   1_455  S
O313       Cr328   2.002   1_455  S
O313        C314   1.266       .  A
C314        O315   1.263       .  A
C314        C695   1.488       .  S
O315       Cr329   1.995   1_455  S
O316       Cr329   1.940   1_455  S
O316        C317   1.258       .  A
C317        C905   1.463       .  S
O318       Cr327   1.999       .  S
O318        C326   1.258       .  A
O319       Cr327   1.994       .  S
O319        C320   1.266       .  A
C320        O321   1.260       .  A
C320        C513   1.472       .  S
O321       Cr328   1.944       .  S
O322       Cr328   2.008       .  S
O322        C323   1.270       .  A
C323        O324   1.268       .  A
C323        C975   1.488       .  S
O324       Cr329   1.993       .  S
O325       Cr329   2.011       .  S
O325        C326   1.260       .  A
C326        C440   1.502       .  S
Cr327       O330   1.785       .  S
Cr328       O330   1.776       .  S
Cr329       O330   1.779       .  S
O331       Cr349   2.014       .  S
O331        C339   1.275       .  A
O332       Cr349   1.977       .  S
O332        C333   1.259       .  A
C333        O334   1.268       .  A
C333        C933   1.497       .  S
O334       Cr350   2.007       .  S
O335       Cr350   2.005       .  S
O335        C336   1.259       .  A
C336        O337   1.259       .  A
C336        C429   1.491       .  S
O337       Cr351   2.009       .  S
O338       Cr351   1.943       .  S
O338        C339   1.262       .  A
C339        C457   1.462       .  S
O340       Cr349   2.009   1_554  S
O340        C348   1.262       .  A
O341       Cr349   2.023       .  S
O341        C342   1.270       .  A
C342        O343   1.259       .  A
C342        C611   1.496       .  S
O343       Cr350   1.973       .  S
O344       Cr350   2.008       .  S
O344        C345   1.273       .  A
C345        O346   1.259       .  A
C345        C681   1.460       .  S
O346       Cr351   1.943       .  S
O347       Cr351   2.000       .  S
O347        C348   1.258   1_556  A
C348        C412   1.493       .  S
Cr349       O352   1.779       .  S
Cr350       O352   1.778       .  S
Cr351       O352   1.779       .  S
O353       Cr371   2.006       .  S
O353        C361   1.276       .  A
O354       Cr371   1.977       .  S
O354        C355   1.261       .  A
C355        O356   1.266       .  A
C355        C569   1.501       .  S
O356       Cr372   2.007       .  S
O357       Cr372   2.012       .  S
O357        C358   1.259       .  A
C358        O359   1.253       .  A
C358        C398   1.488       .  S
O359       Cr373   1.989       .  S
O360       Cr373   1.942       .  S
O360        C361   1.262       .  A
C361       C1000   1.461       .  S
O362       Cr371   2.009   1_455  S
O362        C370   1.258       .  A
O363       Cr371   2.003   1_455  S
O363        C364   1.266       .  A
C364        O365   1.261       .  A
C364        C793   1.495       .  S
O365       Cr372   1.975   1_455  S
O366       Cr372   2.012   1_455  S
O366        C367   1.275       .  A
C367        O368   1.264       .  A
C367        C625   1.454       .  S
O368       Cr373   1.935   1_455  S
O369       Cr373   1.999   1_455  S
O369        C370   1.254       .  A
C370        C415   1.491       .  S
Cr371       O374   1.777       .  S
Cr372       O374   1.780       .  S
Cr373       O374   1.779       .  S
O375       Cr393   2.023       .  S
O375        C383   1.280       .  A
O376       Cr393   1.962       .  S
O376        C377   1.255       .  A
C377        O378   1.269       .  A
C377        C527   1.491       .  S
O378       Cr394   2.015       .  S
O379       Cr394   2.016       .  S
O379        C380   1.262       .  A
C380        O381   1.258       .  A
C380        C426   1.496       .  S
O381       Cr395   1.999       .  S
O382       Cr395   1.936       .  S
O382        C383   1.260       .  A
C383        C471   1.471       .  S
O384       Cr393   2.005       .  S
O384        C392   1.257       .  A
O385       Cr393   2.021       .  S
O385        C386   1.272       .  A
C386        O387   1.258       .  A
C386        C849   1.502       .  S
O387       Cr394   1.971       .  S
O388       Cr394   2.009       .  S
O388        C389   1.276       .  A
C389        O390   1.261       .  A
C389        C961   1.457       .  S
O390       Cr395   1.941       .  S
O391       Cr395   1.997       .  S
O391        C392   1.255       .  A
C392        C401   1.487       .  S
Cr393       O396   1.771       .  S
Cr394       O396   1.774       .  S
Cr395       O396   1.776       .  S
C397        C398   1.407       .  A
C397        C402   1.406       .  A
C397        H404   1.082       .  S
C398        C399   1.409       .  A
C399        C400   1.407       .  A
C399        N406   1.428       .  S
C400        C401   1.406       .  A
C400        H405   1.082       .  S
C401        C402   1.409       .  A
C402        N403   1.429       .  S
N403        O407   1.262       .  A
N403        O408   1.262       .  A
N406        O410   1.262       .  A
N406        O409   1.262       .  A
C411        C412   1.407       .  A
C411        C416   1.407       .  A
C411        H418   1.083       .  S
C412        C413   1.412       .  A
C413        C414   1.411       .  A
C413        N420   1.428       .  S
C414        C415   1.408       .  A
C414        H419   1.084       .  S
C415        C416   1.410       .  A
C416        N417   1.428       .  S
N417        O421   1.262       .  A
N417        O422   1.262   1_455  A
N420        O424   1.262       .  A
N420        O423   1.262       .  A
C425        C426   1.407   1_455  A
C425        C430   1.405       .  A
C425        H432   1.084       .  S
C426        C427   1.413       .  A
C427        C428   1.412       .  A
C427        N434   1.428       .  S
C428        C429   1.407   1_655  A
C428        H433   1.082       .  S
C429        C430   1.409       .  A
C430        N431   1.428       .  S
N431        O435   1.262       .  A
N431        O436   1.262       .  A
N434        O438   1.262       .  A
N434        O437   1.262       .  A
C439        C440   1.409       .  A
C439        C444   1.415       .  A
C439        H446   1.084       .  S
C440        C441   1.416       .  A
C441        C442   1.405       .  A
C441        N448   1.430       .  S
C442        C443   1.408       .  A
C442        H447   1.084       .  S
C443        C444   1.415       .  A
C444        N445   1.427       .  S
N445        O449   1.262       .  A
N445        O450   1.262       .  A
N448        O452   1.262       .  A
N448        O451   1.262   1_655  A
C453        C454   1.400   1_556  A
C453        C458   1.390       .  A
C453        H460   1.084       .  S
C454        C455   1.411   1_655  A
C455        C456   1.392       .  A
C455        N462   1.430       .  S
C456        C457   1.400   1_554  A
C456        H461   1.083       .  S
C457        C458   1.410   1_455  A
C458        N459   1.429       .  S
N459        O463   1.261       .  A
N459        O464   1.262       .  A
N462        O466   1.262       .  A
N462        O465   1.262       .  A
C467        C468   1.397       .  A
C467        C472   1.389       .  A
C467        H474   1.084       .  S
C468        C469   1.411   1_455  A
C469        C470   1.394       .  A
C469        N476   1.427       .  S
C470        C471   1.401       .  A
C470        H475   1.084       .  S
C471        C472   1.416   1_655  A
C472        N473   1.428       .  S
N473        O477   1.262       .  A
N473        O478   1.262       .  A
N476        O480   1.260       .  A
N476        O479   1.262       .  A
C481        C482   1.411       .  A
C481        C486   1.411       .  A
C481        H488   1.083       .  S
C482        C483   1.417       .  A
C483        C484   1.412       .  A
C483        N490   1.428       .  S
C484        C485   1.412       .  A
C484        H489   1.083       .  S
C485        C486   1.418       .  A
C486        N487   1.429       .  S
N487        O491   1.262       .  A
N487        O492   1.262       .  A
N490        O494   1.262       .  A
N490        O493   1.262       .  A
C495        C496   1.404   1_455  A
C495        C500   1.401       .  A
C495        H502   1.090       .  S
C496        C497   1.413       .  A
C497        C498   1.408       .  A
C497        N504   1.427       .  S
C498        C499   1.405   1_655  A
C498        H503   1.107       .  S
C499        C500   1.417       .  A
C500        N501   1.429       .  S
N501        O505   1.262       .  A
N501        O506   1.262       .  A
N504        O508   1.262       .  A
N504        O507   1.262       .  A
C509        C510   1.398       .  A
C509        C514   1.396       .  A
C509        H516   1.082       .  S
C510        C511   1.401       .  A
C511        C512   1.387       .  A
C511        N518   1.430       .  S
C512        C513   1.408       .  A
C512        H517   1.084       .  S
C513        C514   1.414       .  A
C514        N515   1.429       .  S
N515        O519   1.262       .  A
N515        O520   1.262       .  A
N518        O522   1.262       .  A
N518        O521   1.262       .  A
C523        C524   1.404       .  A
C523        C528   1.401       .  A
C523        H530   1.084       .  S
C524        C525   1.423       .  A
C525        C526   1.405       .  A
C525        N532   1.429       .  S
C526        C527   1.400       .  A
C526        H531   1.084       .  S
C527        C528   1.419       .  A
C528        N529   1.430       .  S
N529        O533   1.262       .  A
N529        O534   1.262       .  A
N532        O536   1.262       .  A
N532        O535   1.262       .  A
C537        C538   1.398       .  A
C537        C542   1.390       .  A
C537        H544   1.084       .  S
C538        C539   1.408       .  A
C539        C540   1.393       .  A
C539        N546   1.430       .  S
C540        C541   1.399       .  A
C540        H545   1.082       .  S
C541        C542   1.410       .  A
C542        N543   1.430       .  S
N543        O547   1.262       .  A
N543        O548   1.262       .  A
N546        O550   1.262       .  A
N546        O549   1.262       .  A
C551        C552   1.409       .  A
C551        C556   1.400       .  A
C551        H558   1.084       .  S
C552        C553   1.419       .  A
C553        C554   1.417       .  A
C553        N560   1.427       .  S
C554        C555   1.407       .  A
C554        H559   1.083       .  S
C555        C556   1.408       .  A
C556        N557   1.429       .  S
N557        O561   1.262       .  A
N557        O562   1.261       .  A
N560        O564   1.262       .  A
N560        O563   1.262       .  A
C565        C566   1.413       .  A
C565        C570   1.407       .  A
C565        H572   1.083       .  S
C566        C567   1.414       .  A
C567        C568   1.404       .  A
C567        N574   1.428       .  S
C568        C569   1.410       .  A
C568        H573   1.083       .  S
C569        C570   1.414       .  A
C570        N571   1.429       .  S
N571        O575   1.262       .  A
N571        O576   1.262       .  A
N574        O578   1.262       .  A
N574        O577   1.262       .  A
C579        C580   1.406       .  A
C579        C584   1.405       .  A
C579        H586   1.082       .  S
C580        C581   1.411       .  A
C581        C582   1.409       .  A
C581        N588   1.428       .  S
C582        C583   1.408       .  A
C582        H587   1.084   1_554  S
C583        C584   1.409       .  A
C584        N585   1.428       .  S
N585        O589   1.262       .  A
N585        O590   1.262       .  A
N588        O592   1.262       .  A
N588        O591   1.262       .  A
C593        C594   1.408   1_545  A
C593        C598   1.406       .  A
C593        H600   1.083       .  S
C594        C595   1.412       .  A
C595        C596   1.410       .  A
C595        N602   1.428       .  S
C596        C597   1.407   1_565  A
C596        H601   1.084       .  S
C597        C598   1.410       .  A
C598        N599   1.429       .  S
N599        O603   1.262       .  A
N599        O604   1.262       .  A
N602        O606   1.262       .  A
N602        O605   1.262       .  A
C607        C608   1.413       .  A
C607        C612   1.407       .  A
C607        H614   1.083       .  S
C608        C609   1.414       .  A
C609        C610   1.405       .  A
C609        N616   1.429       .  S
C610        C611   1.410       .  A
C610        H615   1.084       .  S
C611        C612   1.409       .  A
C612        N613   1.428   1_556  S
N613        O617   1.262       .  A
N613        O618   1.262       .  A
N616        O620   1.262       .  A
N616        O619   1.262       .  A
C621        C622   1.400       .  A
C621        C626   1.389       .  A
C621        H628   1.085       .  S
C622        C623   1.405       .  A
C623        C624   1.388       .  A
C623        N630   1.426       .  S
C624        C625   1.400       .  A
C624        H629   1.084       .  S
C625        C626   1.407       .  A
C626        N627   1.428       .  S
N627        O631   1.262       .  A
N627        O632   1.261       .  A
N630        O634   1.262       .  A
N630        O633   1.261       .  A
C635        C636   1.399       .  A
C635        C640   1.390       .  A
C635        H642   1.085       .  S
C636        C637   1.406   1_565  A
C637        C638   1.388       .  A
C637        N644   1.430       .  S
C638        C639   1.396       .  A
C638        H643   1.082       .  S
C639        C640   1.406   1_545  A
C640        N641   1.429       .  S
N641        O645   1.262       .  A
N641        O646   1.262       .  A
N644        O648   1.262       .  A
N644        O647   1.262       .  A
C649        C650   1.407       .  A
C649        C654   1.402       .  A
C649        H656   1.083       .  S
C650        C651   1.423       .  A
C651        C652   1.403       .  A
C651        N658   1.430       .  S
C652        C653   1.399       .  A
C652        H657   1.084       .  S
C653        C654   1.410       .  A
C654        N655   1.430       .  S
N655        O659   1.262       .  A
N655        O660   1.262       .  A
N658        O662   1.262       .  A
N658        O661   1.262       .  A
C663        C664   1.407       .  A
C663        C668   1.412       .  A
C663        H670   1.084       .  S
C664        C665   1.410       .  A
C665        C666   1.407       .  A
C665        N672   1.428       .  S
C666        C667   1.409       .  A
C666        H671   1.084       .  S
C667        C668   1.414       .  A
C668        N669   1.428       .  S
N669        O673   1.262       .  A
N669        O674   1.262       .  A
N672        O676   1.262       .  A
N672        O675   1.262       .  A
C677        C678   1.397       .  A
C677        C682   1.390       .  A
C677        H684   1.084       .  S
C678        C679   1.411       .  A
C679        C680   1.390       .  A
C679        N686   1.430       .  S
C680        C681   1.399       .  A
C680        H685   1.084       .  S
C681        C682   1.413       .  A
C682        N683   1.429       .  S
N683        O687   1.262       .  A
N683        O688   1.262       .  A
N686        O690   1.262       .  A
N686        O689   1.262       .  A
C691        C692   1.415       .  A
C691        C696   1.409       .  A
C691        H698   1.083       .  S
C692        C693   1.413       .  A
C693        C694   1.398       .  A
C693        N700   1.429       .  S
C694        C695   1.405       .  A
C694        H699   1.083       .  S
C695        C696   1.409       .  A
C696        N697   1.429       .  S
N697        O701   1.262       .  A
N697        O702   1.262       .  A
N700        O704   1.262       .  A
N700        O703   1.262       .  A
C705        C706   1.399   1_556  A
C705        C710   1.391       .  A
C705        H712   1.084       .  S
C706        C707   1.411       .  A
C707        C708   1.387   1_545  A
C707        N714   1.427       .  S
C708        C709   1.396   1_554  A
C708        H713   1.084       .  S
C709        C710   1.412   1_565  A
C710        N711   1.429       .  S
N711        O715   1.262   1_545  A
N711        O716   1.262       .  A
N714        O718   1.262       .  A
N714        O717   1.262   1_545  A
C719        C720   1.408       .  A
C719        C724   1.408       .  A
C719        H726   1.084   1_556  S
C720        C721   1.414       .  A
C721        C722   1.411       .  A
C721        N728   1.428       .  S
C722        C723   1.405       .  A
C722        H727   1.081       .  S
C723        C724   1.411       .  A
C724        N725   1.429       .  S
N725        O729   1.262   1_545  A
N725        O730   1.262       .  A
N728        O732   1.262       .  A
N728        O731   1.262       .  A
C733        C734   1.411   1_545  A
C733        C738   1.400       .  A
C733        H740   1.084       .  S
C734        C735   1.417       .  A
C735        C736   1.413   1_565  A
C735        N742   1.428       .  S
C736        C737   1.405       .  A
C736        H741   1.078       .  S
C737        C738   1.407       .  A
C738        N739   1.430       .  S
N739        O743   1.262       .  A
N739        O744   1.262       .  A
N742        O746   1.262       .  A
N742        O745   1.262       .  A
C747        C748   1.404       .  A
C747        C752   1.404       .  A
C747        H754   1.084       .  S
C748        C749   1.422       .  A
C749        C750   1.404       .  A
C749        N756   1.429       .  S
C750        C751   1.403       .  A
C750        H755   1.084       .  S
C751        C752   1.420       .  A
C752        N753   1.429   1_554  S
N753        O757   1.262       .  A
N753        O758   1.262       .  A
N756        O760   1.261       .  A
N756        O759   1.262       .  A
C761        C762   1.405       .  A
C761        C766   1.386       .  A
C761        H768   1.084       .  S
C762        C763   1.415       .  A
C763        C764   1.394       .  A
C763        N770   1.429       .  S
C764        C765   1.398       .  A
C764        H769   1.084       .  S
C765        C766   1.407       .  A
C766        N767   1.431       .  S
N767        O771   1.262       .  A
N767        O772   1.262       .  A
N770        O774   1.262       .  A
N770        O773   1.261       .  A
C775        C776   1.403       .  A
C775        C780   1.383       .  A
C775        H782   1.081       .  S
C776        C777   1.408       .  A
C777        C778   1.388       .  A
C777        N784   1.430       .  S
C778        C779   1.405       .  A
C778        H783   1.084       .  S
C779        C780   1.407       .  A
C780        N781   1.430       .  S
N781        O785   1.262       .  A
N781        O786   1.262       .  A
N784        O788   1.262       .  A
N784        O787   1.261       .  A
C789        C790   1.407       .  A
C789        C794   1.404   1_545  A
C789        H796   1.084       .  S
C790        C791   1.409       .  A
C791        C792   1.402   1_545  A
C791        N798   1.429       .  S
C792        C793   1.411       .  A
C792        H797   1.084       .  S
C793        C794   1.413       .  A
C794        N795   1.429       .  S
N795        O799   1.262       .  A
N795        O800   1.262       .  A
N798        O802   1.262       .  A
N798        O801   1.262       .  A
C803        C804   1.404       .  A
C803        C808   1.399   1_655  A
C803        H810   1.084       .  S
C804        C805   1.421       .  A
C805        C806   1.405   1_655  A
C805        N812   1.429       .  S
C806        C807   1.401       .  A
C806        H811   1.084       .  S
C807        C808   1.415       .  A
C808        N809   1.430       .  S
N809        O813   1.261       .  A
N809        O814   1.262       .  A
N812        O816   1.262       .  A
N812        O815   1.262       .  A
C817        C818   1.401       .  A
C817        C822   1.392       .  A
C817        H824   1.084       .  S
C818        C819   1.411       .  A
C819        C820   1.394       .  A
C819        N826   1.429       .  S
C820        C821   1.401       .  A
C820        H825   1.084       .  S
C821        C822   1.412       .  A
C822        N823   1.430       .  S
N823        O827   1.262       .  A
N823        O828   1.262       .  A
N826        O830   1.261       .  A
N826        O829   1.262       .  A
C831        C832   1.410       .  A
C831        C836   1.410       .  A
C831        H838   1.081       .  S
C832        C833   1.419       .  A
C833        C834   1.402       .  A
C833        N840   1.430       .  S
C834        C835   1.403       .  A
C834        H839   1.084       .  S
C835        C836   1.411       .  A
C836        N837   1.428       .  S
N837        O841   1.262       .  A
N837        O842   1.262       .  A
N840        O844   1.262       .  A
N840        O843   1.262       .  A
C845        C846   1.404       .  A
C845        C850   1.405       .  A
C845        H852   1.084       .  S
C846        C847   1.423       .  A
C847        C848   1.406       .  A
C847        N854   1.429       .  S
C848        C849   1.403       .  A
C848        H853   1.084       .  S
C849        C850   1.422       .  A
C850        N851   1.429       .  S
N851        O855   1.262       .  A
N851        O856   1.262       .  A
N854        O858   1.262       .  A
N854        O857   1.261       .  A
C859        C860   1.404       .  A
C859        C864   1.404       .  A
C859        H866   1.084       .  S
C860        C861   1.420       .  A
C861        C862   1.405       .  A
C861        N868   1.429       .  S
C862        C863   1.406       .  A
C862        H867   1.084       .  S
C863        C864   1.421       .  A
C864        N865   1.428       .  S
N865        O869   1.261       .  A
N865        O870   1.262       .  A
N868        O872   1.262       .  A
N868        O871   1.262       .  A
C873        C874   1.411       .  A
C873        C878   1.418       .  A
C873        H880   1.083       .  S
C874        C875   1.421       .  A
C875        C876   1.397       .  A
C875        N882   1.430       .  S
C876        C877   1.400       .  A
C876        H881   1.085       .  S
C877        C878   1.415       .  A
C878        N879   1.427       .  S
N879        O883   1.262       .  A
N879        O884   1.262       .  A
N882        O886   1.262       .  A
N882        O885   1.262       .  A
C887        C888   1.407       .  A
C887        C892   1.419       .  A
C887        H894   1.083       .  S
C888        C889   1.417       .  A
C889        C890   1.407       .  A
C889        N896   1.429   1_554  S
C890        C891   1.406       .  A
C890        H895   1.084       .  S
C891        C892   1.420       .  A
C892        N893   1.428       .  S
N893        O897   1.261       .  A
N893        O898   1.262       .  A
N896        O900   1.261       .  A
N896        O899   1.262       .  A
C901        C902   1.397       .  A
C901        C906   1.384       .  A
C901        H908   1.083       .  S
C902        C903   1.406       .  A
C903        C904   1.392       .  A
C903        N910   1.427       .  S
C904        C905   1.403       .  A
C904        H909   1.084       .  S
C905        C906   1.413       .  A
C906        N907   1.429       .  S
N907        O911   1.261       .  A
N907        O912   1.262       .  A
N910        O914   1.261       .  A
N910        O913   1.262       .  A
C915        C916   1.410       .  A
C915        C920   1.404       .  A
C915        H922   1.083       .  S
C916        C917   1.416       .  A
C917        C918   1.404       .  A
C917        N924   1.429       .  S
C918        C919   1.408       .  A
C918        H923   1.083       .  S
C919        C920   1.413       .  A
C920        N921   1.429   1_556  S
N921        O925   1.262       .  A
N921        O926   1.262       .  A
N924        O928   1.262       .  A
N924        O927   1.262       .  A
C929        C930   1.405       .  A
C929        C934   1.402       .  A
C929        H936   1.084       .  S
C930        C931   1.422       .  A
C931        C932   1.405       .  A
C931        N938   1.431       .  S
C932        C933   1.405       .  A
C932        H937   1.084       .  S
C933        C934   1.418       .  A
C934        N935   1.429   1_556  S
N935        O939   1.261       .  A
N935        O940   1.262       .  A
N938        O942   1.262       .  A
N938        O941   1.262       .  A
C943        C944   1.406       .  A
C943        C948   1.391       .  A
C943        H950   1.084       .  S
C944        C945   1.409       .  A
C945        C946   1.386       .  A
C945        N952   1.429       .  S
C946        C947   1.404       .  A
C946        H951   1.084       .  S
C947        C948   1.410       .  A
C948        N949   1.430       .  S
N949        O953   1.262       .  A
N949        O954   1.262       .  A
N952        O956   1.262       .  A
N952        O955   1.262       .  A
C957        C958   1.396       .  A
C957        C962   1.388       .  A
C957        H964   1.084       .  S
C958        C959   1.412       .  A
C959        C960   1.389       .  A
C959        N966   1.430       .  S
C960        C961   1.398       .  A
C960        H965   1.084       .  S
C961        C962   1.413       .  A
C962        N963   1.430       .  S
N963        O967   1.262       .  A
N963        O968   1.262       .  A
N966        O970   1.262       .  A
N966        O969   1.262       .  A
C971        C972   1.411       .  A
C971        C976   1.403   1_565  A
C971        H978   1.083       .  S
C972        C973   1.413       .  A
C973        C974   1.403   1_565  A
C973        N980   1.429       .  S
C974        C975   1.408       .  A
C974        H979   1.084       .  S
C975        C976   1.410       .  A
C976        N977   1.428       .  S
N977        O981   1.262       .  A
N977        O982   1.262       .  A
N980        O984   1.262       .  A
N980        O983   1.262       .  A
C985        C986   1.412       .  A
C985        C990   1.407   1_655  A
C985        H992   1.083       .  S
C986        C987   1.413       .  A
C987        C988   1.401   1_655  A
C987        N994   1.429       .  S
C988        C989   1.410       .  A
C988        H993   1.083       .  S
C989        C990   1.412       .  A
C990        N991   1.428       .  S
N991        O995   1.262       .  A
N991        O996   1.262       .  A
N994        O998   1.262       .  A
N994        O997   1.262       .  A
C999       C1000   1.398       .  A
C999       C1004   1.389       .  A
C999       H1006   1.084       .  S
C1000      C1001   1.411       .  A
C1001      C1002   1.388       .  A
C1001      N1008   1.428       .  S
C1002      C1003   1.399       .  A
C1002      H1007   1.084       .  S
C1003      C1004   1.413       .  A
C1004      N1005   1.427       .  S
N1005      O1009   1.262       .  A
N1005      O1010   1.262       .  A
N1008      O1012   1.261       .  A
N1008      O1011   1.262       .  A
C1013      C1014   1.405       .  A
C1013      C1018   1.405       .  A
C1013      H1020   1.079       .  S
C1014      C1015   1.408       .  A
C1015      C1016   1.406       .  A
C1015      N1022   1.428       .  S
C1016      C1017   1.408       .  A
C1016      H1021   1.083       .  S
C1017      C1018   1.408       .  A
C1018      N1019   1.428       .  S
N1019      O1023   1.262       .  A
N1019      O1024   1.262       .  A
N1022      O1026   1.262       .  A
N1022      O1025   1.262       .  A
C1027      C1028   1.398   1_554  A
C1027      C1032   1.391       .  A
C1027      H1034   1.084       .  S
C1028      C1029   1.411       .  A
C1029      C1030   1.391       .  A
C1029      N1036   1.430       .  S
C1030      C1031   1.401   1_556  A
C1030      H1035   1.084       .  S
C1031      C1032   1.414       .  A
C1032      N1033   1.428       .  S
N1033      O1037   1.262       .  A
N1033      O1038   1.262       .  A
N1036      O1040   1.262       .  A
N1036      O1039   1.262       .  A
C1041      C1042   1.414       .  A
C1041      C1046   1.409       .  A
C1041      H1048   1.083       .  S
C1042      C1043   1.414       .  A
C1043      C1044   1.404       .  A
C1043      N1050   1.429   1_554  S
C1044      C1045   1.410       .  A
C1044      H1049   1.084       .  S
C1045      C1046   1.411       .  A
C1046      N1047   1.428       .  S
N1047      O1051   1.262       .  A
N1047      O1052   1.262       .  A
N1050      O1054   1.262       .  A
N1050      O1053   1.262       .  A
C1055      C1056   1.402       .  A
C1055      C1060   1.402       .  A
C1055      H1062   1.084       .  S
C1056      C1057   1.419       .  A
C1057      C1058   1.403       .  A
C1057      N1064   1.429   1_554  S
C1058      C1059   1.403       .  A
C1058      H1063   1.084       .  S
C1059      C1060   1.421       .  A
C1060      N1061   1.429       .  S
N1061      O1065   1.262       .  A
N1061      O1066   1.262       .  A
N1064      O1068   1.262       .  A
N1064      O1067   1.262       .  A
C1069      C1070   1.409       .  A
C1069      C1074   1.413       .  A
C1069      H1076   1.084       .  S
C1070      C1071   1.410       .  A
C1071      C1072   1.407       .  A
C1071      N1078   1.428       .  S
C1072      C1073   1.406       .  A
C1072      H1077   1.081       .  S
C1073      C1074   1.413       .  A
C1074      N1075   1.428       .  S
N1075      O1079   1.262       .  A
N1075      O1080   1.262       .  A
N1078      O1082   1.262       .  A
N1078      O1081   1.262       .  A
C1083      C1084   1.408       .  A
C1083      C1088   1.406       .  A
C1083      H1090   1.083       .  S
C1084      C1085   1.413       .  A
C1085      C1086   1.412       .  A
C1085      N1092   1.428       .  S
C1086      C1087   1.408       .  A
C1086      H1091   1.084       .  S
C1087      C1088   1.409       .  A
C1088      N1089   1.429       .  S
N1089      O1093   1.262       .  A
N1089      O1094   1.262       .  A
N1092      O1096   1.262       .  A
N1092      O1095   1.262       .  A
C1097      C1098   1.398       .  A
C1097      C1102   1.385       .  A
C1097      H1104   1.084       .  S
C1098      C1099   1.414       .  A
C1099      C1100   1.395       .  A
C1099      N1106   1.429       .  S
C1100      C1101   1.403       .  A
C1100      H1105   1.084       .  S
C1101      C1102   1.413       .  A
C1102      N1103   1.428       .  S
N1103      O1107   1.261       .  A
N1103      O1108   1.262       .  A
N1106      O1110   1.262       .  A
N1106      O1109   1.262       .  A
C1111      C1112   1.407       .  A
C1111      C1116   1.390       .  A
C1111      H1118   1.084       .  S
C1112      C1113   1.408       .  A
C1113      C1114   1.387       .  A
C1113      N1120   1.430       .  S
C1114      C1115   1.406       .  A
C1114      H1119   1.083       .  S
C1115      C1116   1.408       .  A
C1116      N1117   1.430       .  S
N1117      O1121   1.262       .  A
N1117      O1122   1.261       .  A
N1120      O1124   1.262       .  A
N1120      O1123   1.262       .  A
C1125      C1126   1.411       .  A
C1125      C1130   1.407       .  A
C1125      H1132   1.084       .  S
C1126      C1127   1.413       .  A
C1127      C1128   1.404       .  A
C1127      N1134   1.429       .  S
C1128      C1129   1.411       .  A
C1128      H1133   1.083       .  S
C1129      C1130   1.415       .  A
C1130      N1131   1.429       .  S
N1131      O1135   1.262       .  A
N1131      O1136   1.262       .  A
N1134      O1138   1.262       .  A
N1134      O1137   1.262       .  A
C1139      C1140   1.410       .  A
C1139      C1144   1.401       .  A
C1139      H1146   1.084       .  S
C1140      C1141   1.412       .  A
C1141      C1142   1.410       .  A
C1141      N1148   1.428       .  S
C1142      C1143   1.414       .  A
C1142      H1147   1.083       .  S
C1143      C1144   1.414       .  A
C1144      N1145   1.429       .  S
N1145      O1149   1.262       .  A
N1145      O1150   1.262       .  A
N1148      O1152   1.262       .  A
N1148      O1151   1.262       .  A
