geometry optimzed in LAMMPS
_audit_creation_date              2020-12-01 
_audit_creation_method            'lammps2cif' 
_symmetry_space_group_name_H-M    'P1' 
_symmetry_Int_Tables_number       1 
_symmetry_cell_setting            triclinic 
loop_ 
_symmetry_equiv_pos_as_xyz 
  x,y,z 
_cell_length_a                    27.38982181 
_cell_length_b                    32.49771382963215 
_cell_length_c                    29.43622901275277 
_cell_angle_alpha                 88.68558632368298 
_cell_angle_beta                  84.77908286442296 
_cell_angle_gamma                 99.45109773406053 
loop_ 
_atom_site_label 
_atom_site_type_symbol 
_atom_site_fract_x 
_atom_site_fract_y 
_atom_site_fract_z 
_atom_site_charge 
C1          C  0.39965104  0.14357339  0.33953403     0.80800
N2          N  0.40109835  0.16557842  0.37815451    -0.77500
C3          C  0.35939198  0.16364016  0.40782536     0.83300
N4          N  0.31630260  0.13864299  0.39840444    -0.77400
C5          C  0.31523776  0.11571393  0.35977325     0.83400
N6          N  0.35711791  0.11844313  0.33109114    -0.79100
C7          C  0.36505615  0.34720583  0.08734950     0.80800
N8          N  0.40484199  0.35032178  0.11225790    -0.77500
C9          C  0.40945022  0.37686145  0.14707005     0.83300
N10         N  0.37414472  0.40113508  0.15677601    -0.77400
C11         C  0.33311347  0.39783800  0.13346914     0.83400
N12         N  0.32831515  0.37008775  0.09903359    -0.79100
C13         C  0.13685144  0.39962243  0.39617973     0.80800
N14         N  0.10438204  0.39927104  0.36436565    -0.77500
C15         C  0.06605064  0.36740001  0.36269914     0.83300
N16         N  0.06159735  0.33356303  0.39231120    -0.77400
C17         C  0.09389507  0.33355349  0.42528055     0.83400
N18         N  0.13086906  0.36723059  0.42739609    -0.79100
C19         C  0.17299832  0.07791617  0.11134299     0.80800
N20         N  0.13595495  0.07643623  0.14575979    -0.77500
C21         C  0.09824390  0.09821600  0.14163155     0.83300
N22         N  0.09903820  0.12313239  0.10363018    -0.77400
C23         C  0.13632242  0.12609086  0.06926331     0.83400
N24         N  0.17330853  0.10304046  0.07316690    -0.79100
O25         O  0.06784859  0.09466348  0.22119128    -0.71200
O26         O  0.48156625  0.13080927  0.31665188    -0.71400
O27         O  0.98429012  0.05987025  0.27673202    -0.71300
O28         O  0.06547012  0.16536439  0.26335845    -0.71300
O29         O  0.52150120  0.18253934  0.21019498    -0.71200
O30         O  0.43548503  0.07831422  0.22858942    -0.71200
O31         O  0.43791650  0.15114412  0.26492385    -0.71200
O32         O  0.01913494  0.11057425  0.17168935    -0.71400
V33         V  0.02404317  0.11284970  0.26838336     1.35200
V34         V  0.47955857  0.13027822  0.21972047     1.35200
C35         C  0.05967068  0.09964325  0.17981604     0.78100
C36         C  0.44296813  0.14432430  0.30640202     0.78100
C37         C  0.94325285  0.05327478  0.25963109     0.78000
C38         C  0.05886268  0.19094074  0.23275759     0.77900
O39         O  0.09278916  0.24434770  0.05619382    -0.71200
O40         O  0.20167910  0.24596079  0.96602363    -0.71400
O41         O  0.12051237  0.29832603  0.48809919    -0.71300
O42         O  0.16208663  0.19640895  0.04170927    -0.71300
O43         O  0.11424905  0.15695767  0.99965129    -0.71200
O44         O  0.07793928  0.25874768  0.44223497    -0.71200
O45         O  0.15485133  0.21951086  0.42580471    -0.71200
O46         O  0.04166698  0.20166207  0.51301163    -0.71400
V47         V  0.14690025  0.24426728  0.01061961     1.35200
V48         V  0.09894703  0.21119796  0.47061953     1.35200
C49         C  0.05150881  0.22216703  0.05051651     0.78100
C50         C  0.19494912  0.23065925  0.92740810     0.78100
C51         C  0.09567381  0.29525807  0.45378974     0.78000
C52         C  0.13986975  0.16040452  0.03377205     0.77900
O53         O  0.25565133  0.42266992  0.12737015    -0.71200
O54         O  0.21696801  0.02635467  0.08038806    -0.71400
O55         O  0.26717440  0.46751637  0.05251900    -0.71300
O56         O  0.18600608  0.47104112  0.16347599    -0.71300
O57         O  0.22614121  0.96518120  0.18302763    -0.71200
O58         O  0.32473078  0.04372011  0.11886592    -0.71200
O59         O  0.22954949  0.04286371  0.14995205    -0.71200
O60         O  0.31587780  0.46610341  0.15128826    -0.71400
V61         V  0.22775081  0.46954174  0.10795244     1.35200
V62         V  0.27482506  0.00327775  0.14948707     1.35200
C63         C  0.29922357  0.42940606  0.13976625     0.78100
C64         C  0.20895226  0.04873905  0.11381675     0.78100
C65         C  0.31133066  0.48709861  0.04838744     0.78000
C66         C  0.20161223  0.49694751  0.19256223     0.77900
O67         O  0.04631342  0.39887337  0.29509679    -0.71200
O68         O  0.47974217  0.40227432  0.18731665    -0.71400
O69         O  0.96671028  0.42817827  0.27046906    -0.71300
O70         O  0.06334549  0.37396666  0.21131626    -0.70700
O71         O  0.51937476  0.31440377  0.23585638    -0.71200
O72         O  0.41728593  0.36962712  0.28945383    -0.71200
O73         O  0.43754672  0.34089512  0.20728224    -0.71200
O74         O  0.99853872  0.34093641  0.31854477    -0.71400
V75         V  0.01308993  0.39957316  0.24135933     1.35200
V76         V  0.46901225  0.34243338  0.26215557     1.35200
C77         C  0.03483810  0.36904084  0.32453179     0.78100
C78         C  0.44511021  0.37276191  0.18060065     0.78100
C79         C  0.42516628  0.40910994  0.28778291     0.78000
C80         C  0.56000253  0.33532494  0.21776601     0.77900
O81         O  0.18166674  0.46075263  0.42568289    -0.71200
O82         O  0.22945269  0.08287458  0.36507916    -0.71400
O83         O  0.15396130  0.01983828  0.33959422    -0.71300
O84         O  0.21987084  0.05067252  0.44613877    -0.71300
O85         O  0.30168320  0.47050030  0.38113035    -0.71200
O86         O  0.20996218  0.51763351  0.31976308    -0.71200
O87         O  0.28577875  0.04392956  0.35030859    -0.71200
O88         O  0.20822782  0.44308542  0.35828626    -0.71400
V89         V  0.18724801  0.03483323  0.39326544     1.35200
V90         V  0.25424228  0.49443723  0.35216861     1.35200
C91         C  0.17853695  0.43493397  0.39424857     0.78100
C92         C  0.27474058  0.08003808  0.35551127     0.78100
C93         C  0.17169995  0.99418523  0.31353788     0.78000
C94         C  0.26006089  0.03711795  0.45067949     0.77900
O95         O  0.32283094  0.19746328  0.47225274    -0.71200
O96         O  0.32323198  0.29071319  0.04616319    -0.71400
O97         O  0.30805349  0.27069476  0.95838314    -0.71300
O98         O  0.34543894  0.21510563  0.06166997    -0.71300
O99         O  0.41809906  0.23335603  0.53938418    -0.71200
O100        O  0.38873040  0.29325712  0.43683093    -0.71200
O101        O  0.40103947  0.31344311  0.02430313    -0.71200
O102        O  0.40171301  0.21608951  0.45200216    -0.71400
V103        V  0.32784388  0.24326975  0.00921019     1.35200
V104        V  0.40173307  0.26315021  0.48922824     1.35200
C105        C  0.36118812  0.19253022  0.44662353     0.78100
C106        C  0.36222054  0.31686318  0.05002686     0.78100
C107        C  0.34044115  0.28768619  0.92710258     0.78000
C108        C  0.39101388  0.21944047  0.06790898     0.77900
C109        C  0.34214727  0.43622540  0.99705900     0.24200
C110        C  0.34668565  0.47735971  0.01240292    -0.23900
C111        C  0.32566170  0.10412759  0.04231369     0.19100
C112        C  0.29332919  0.09255689  0.50301426     0.24100
C113        C  0.35534914  0.48136572  0.43887418    -0.23900
C114        C  0.36342088  0.45057284  0.46993180     0.19000
F115        F  0.33998857  0.41053287  0.46861925    -0.13800
F116        F  0.31198653  0.40406018  0.02055187    -0.16200
F117        F  0.25245962  0.11102335  0.50283329    -0.16200
F118        F  0.31141402  0.12723569  0.07736342    -0.13800
C119        C  0.15207324  0.91081657  0.23175998     0.24200
C120        C  0.16813039  0.51357258  0.22701124    -0.23900
C121        C  0.12951087  0.48800625  0.25387285     0.19100
C122        C  0.10985470  0.50334021  0.29485767     0.24100
C123        C  0.13555146  0.54042853  0.31102534    -0.23900
C124        C  0.15263825  0.92814869  0.27460401     0.19000
F125        F  0.17024217  0.90763297  0.30869971    -0.13800
F126        F  0.17547916  0.87750831  0.22429356    -0.16200
F127        F  0.07749248  0.47728455  0.32433052    -0.16200
F128        F  0.11572436  0.44773281  0.24338706    -0.13800
C129        C  0.44126316  0.24067586  0.12680526     0.24200
C130        C  0.40963256  0.20664135  0.11076780    -0.23900
C131        C  0.42162224  0.16354375  0.60611843     0.19100
C132        C  0.97111337  0.16794046  0.58770104     0.24100
C133        C  0.00977061  0.21429847  0.08629609    -0.23900
C134        C  0.99156640  0.24696918  0.10935599     0.19000
F135        F  0.01835447  0.28597699  0.10757951    -0.13800
F136        F  0.42149007  0.27336529  0.14361715    -0.16200
F137        F  0.98894460  0.13477394  0.56937373    -0.16200
F138        F  0.39316291  0.12546336  0.61278663    -0.13800
C139        C  0.31333536  0.26121003  0.36405397     0.24200
C140        C  0.32592513  0.28964483  0.88016235    -0.23900
C141        C  0.28716745  0.31198146  0.87517599     0.19100
C142        C  0.23869663  0.28979446  0.87938431     0.24100
C143        C  0.23078029  0.24643103  0.88808853    -0.23900
C144        C  0.26390127  0.24134227  0.37567520     0.19000
F145        F  0.25119679  0.19951902  0.37185504    -0.13800
F146        F  0.34785202  0.23818527  0.34827760    -0.16200
F147        F  0.20003243  0.31047861  0.88056820    -0.16200
F148        F  0.29506632  0.35423062  0.87560542    -0.13800
C149        C  0.36938101  0.45252954  0.26520527     0.24200
C150        C  0.38840054  0.43509645  0.30268105    -0.23900
C151        C  0.90782450  0.46313313  0.33438650     0.19100
C152        C  0.90125391  0.00943931  0.32652311     0.24100
C153        C  0.90482668  0.01899142  0.27924707    -0.23900
C154        C  0.37512878  0.99275631  0.25191421     0.19000
F155        F  0.37463970  0.00292320  0.20713236    -0.13800
F156        F  0.33926206  0.42743223  0.23963297    -0.16200
F157        F  0.92485722  0.03649100  0.35509095    -0.16200
F158        F  0.92147514  0.44786266  0.37373122    -0.13800
C159        C  0.10682688  0.29111019  0.17293622     0.24200
C160        C  0.60372576  0.31506023  0.21146985    -0.23900
C161        C  0.61589483  0.29856128  0.25275320     0.19100
C162        C  0.60720760  0.25531968  0.26001487     0.24100
C163        C  0.09258982  0.23036539  0.22381023    -0.23900
C164        C  0.09988680  0.24785267  0.17928531     0.19000
F165        F  0.09409080  0.22295023  0.14330525    -0.13800
F166        F  0.10666351  0.30875979  0.13081115    -0.16200
F167        F  0.60468631  0.23876961  0.30311858    -0.16200
F168        F  0.62126221  0.32312001  0.28921441    -0.13800
C169        C  0.40919475  0.13952175  0.84241241     0.80800
N170        N  0.41009396  0.16298007  0.88008808    -0.77500
C171        C  0.36824485  0.16103030  0.90967218     0.83300
N172        N  0.32572799  0.13497929  0.90077869    -0.77400
C173        C  0.32499855  0.11119358  0.86283699     0.83400
N174        N  0.36698902  0.11361947  0.83445911    -0.79100
C175        C  0.37259491  0.34802450  0.58718732     0.80800
N176        N  0.41211438  0.34864826  0.61187938    -0.77500
C177        C  0.42123636  0.37695764  0.64427650     0.83300
N178        N  0.39047956  0.40558043  0.65205106    -0.77400
C179        C  0.34962140  0.40502562  0.62864744     0.83400
N180        N  0.34047797  0.37559873  0.59631611    -0.79100
C181        C  0.15777306  0.39240118  0.88469092     0.80800
N182        N  0.12652579  0.39123923  0.85190665    -0.77500
C183        C  0.08619334  0.36112283  0.85212187     0.83300
N184        N  0.07826177  0.32945702  0.88464784    -0.77400
C185        C  0.10929680  0.33003282  0.91864034     0.83400
N186        N  0.14826218  0.36257863  0.91924003    -0.79100
C187        C  0.17485866  0.07989103  0.60622625     0.80800
N188        N  0.13704449  0.07581046  0.64005344    -0.77500
C189        C  0.09881388  0.09704266  0.63736370     0.83300
N190        N  0.09991483  0.12449287  0.60149312    -0.77400
C191        C  0.13809139  0.13030337  0.56771815     0.83400
N192        N  0.17565510  0.10741829  0.56990992    -0.79100
O193        O  0.07021602  0.08963390  0.71695492    -0.71200
O194        O  0.49026381  0.12665556  0.81647040    -0.71400
O195        O  0.98818945  0.05590380  0.77533984    -0.71300
O196        O  0.07281249  0.15992923  0.76001856    -0.71300
O197        O  0.52678025  0.17870943  0.70932640    -0.71200
O198        O  0.43776188  0.07645273  0.73001737    -0.71200
O199        O  0.44517995  0.14913585  0.76727808    -0.71200
O200        O  0.01976861  0.10736602  0.67004821    -0.71400
V201        V  0.02957371  0.10819840  0.76617170     1.35200
V202        V  0.48338496  0.12746409  0.72002659     1.35200
C203        C  0.06066455  0.09615107  0.67627048     0.78100
C204        C  0.45172460  0.14126667  0.80818824     0.78100
C205        C  0.94598254  0.05085791  0.76031087     0.78000
C206        C  0.06592376  0.18567289  0.72967294     0.77900
O207        O  0.08086253  0.24397964  0.55855427    -0.71200
O208        O  0.19520126  0.25781217  0.47429118    -0.71400
O209        O  0.13423722  0.29413994  0.98204999    -0.71300
O210        O  0.15651692  0.20276165  0.54582899    -0.71300
O211        O  0.11809682  0.16236888  0.49806090    -0.71200
O212        O  0.08646355  0.25607919  0.93875361    -0.71200
O213        O  0.15436497  0.20729364  0.92272903    -0.71200
O214        O  0.04627195  0.20510062  0.01283357    -0.71400
V215        V  0.13759949  0.24972533  0.51573883     1.35200
V216        V  0.10133016  0.20698006  0.96931209     1.35200
C217        C  0.04289083  0.21834488  0.55134844     0.78100
C218        C  0.19252259  0.24517936  0.43414988     0.78100
C219        C  0.10821138  0.29202535  0.94860039     0.78000
C220        C  0.14034162  0.16612238  0.53421760     0.77900
O221        O  0.28074632  0.43867573  0.61345618    -0.71200
O222        O  0.21793101  0.02678123  0.57701135    -0.71400
O223        O  0.30918151  0.49381046  0.54634792    -0.71300
O224        O  0.20902846  0.48534931  0.64654816    -0.71300
O225        O  0.22626916  0.97160376  0.68301730    -0.71200
O226        O  0.32736090  0.04488753  0.61448564    -0.71200
O227        O  0.23299529  0.04756388  0.64471957    -0.71200
O228        O  0.33823549  0.47488702  0.64896370    -0.71400
V229        V  0.25996801  0.48963366  0.59640502     1.35200
V230        V  0.27632644  0.00696169  0.64745076     1.35200
C231        C  0.32072649  0.44038488  0.63222888     0.78100
C232        C  0.21156473  0.05146667  0.60870329     0.78100
C233        C  0.35294991  0.51274097  0.55025842     0.78000
C234        C  0.22028158  0.50360842  0.68271914     0.77900
O235        O  0.06878824  0.39119448  0.78324351    -0.71200
O236        O  0.49399097  0.40036534  0.68201102    -0.71400
O237        O  0.99048024  0.42529323  0.76585534    -0.71300
O238        O  0.07702143  0.36702148  0.69872887    -0.70700
O239        O  0.53295351  0.30898755  0.72765875    -0.71200
O240        O  0.43675119  0.36883057  0.78375517    -0.71200
O241        O  0.45182539  0.33885199  0.70140254    -0.71200
O242        O  0.01623902  0.33696220  0.81041024    -0.71400
V243        V  0.03158473  0.39478052  0.73269882     1.35200
V244        V  0.48526135  0.33919413  0.75506469     1.35200
C245        C  0.05518400  0.36292058  0.81419395     0.78100
C246        C  0.45814935  0.37164670  0.67618232     0.78100
C247        C  0.44839943  0.40811881  0.78381330     0.78000
C248        C  0.57306247  0.32857190  0.70698529     0.77900
O249        O  0.20430876  0.45212125  0.91432179    -0.71200
O250        O  0.23838792  0.08118987  0.86720168    -0.71400
O251        O  0.16277593  0.01940951  0.84024290    -0.71300
O252        O  0.22320606  0.05097739  0.94898194    -0.71300
O253        O  0.32135744  0.46523030  0.86409243    -0.71200
O254        O  0.22578432  0.51345035  0.80977078    -0.71200
O255        O  0.29214894  0.03991020  0.85281407    -0.71200
O256        O  0.22661137  0.43781793  0.84451323    -0.71400
V257        V  0.19344012  0.03445898  0.89498341     1.35200
V258        V  0.27209779  0.48977360  0.83892232     1.35200
C259        C  0.19953282  0.42767468  0.88187262     0.78100
C260        C  0.28317690  0.07666797  0.85789211     0.78100
C261        C  0.17858541  0.99108337  0.81696276     0.78000
C262        C  0.26398077  0.03887193  0.95454234     0.77900
O263        O  0.32908212  0.19481410  0.97264268    -0.71200
O264        O  0.32618242  0.29257074  0.54817747    -0.71400
O265        O  0.31040060  0.27591293  0.46052912    -0.71300
O266        O  0.33988344  0.21399952  0.56223794    -0.71300
O267        O  0.42246854  0.23812469  0.03701214    -0.71200
O268        O  0.38540789  0.29393252  0.93507799    -0.71200
O269        O  0.40467487  0.31105105  0.52572252    -0.71200
O270        O  0.40635304  0.21889193  0.95013142    -0.71400
V271        V  0.32625769  0.24524930  0.51034895     1.35200
V272        V  0.40220484  0.26582493  0.98730303     1.35200
C273        C  0.36796213  0.19192695  0.94666108     0.78100
C274        C  0.36675465  0.31693125  0.55119045     0.78100
C275        C  0.34390187  0.29154279  0.42954544     0.78000
C276        C  0.38489652  0.21549946  0.56939122     0.77900
C277        C  0.39024665  0.46353488  0.50669022     0.24200
C278        C  0.39396936  0.50586494  0.51713877    -0.23900
C279        C  0.32681267  0.10245792  0.53589559     0.19100
C280        C  0.29349352  0.09457538  0.00822401     0.24100
C281        C  0.37303126  0.46544340  0.92412856    -0.23900
C282        C  0.36184454  0.43004561  0.95306485     0.19000
F283        F  0.35215834  0.39173754  0.93547528    -0.13800
F284        F  0.39650097  0.43523430  0.53899696    -0.16200
F285        F  0.25185709  0.11194546  0.00762549    -0.16200
F286        F  0.31362738  0.12634361  0.57058697    -0.13800
C287        C  0.15476144  0.91148498  0.73008748     0.24200
C288        C  0.18317475  0.51548219  0.71743058    -0.23900
C289        C  0.14615660  0.48622940  0.74194879     0.19100
C290        C  0.12570458  0.49683897  0.78507379     0.24100
C291        C  0.14883499  0.53306138  0.80500923    -0.23900
C292        C  0.15911643  0.92710031  0.77351845     0.19000
F293        F  0.17800562  0.90461773  0.80510244    -0.13800
F294        F  0.17623899  0.87779589  0.71906122    -0.16200
F295        F  0.09484181  0.46752091  0.81206236    -0.16200
F296        F  0.13504053  0.44685580  0.72732519    -0.13800
C297        C  0.43303943  0.23229242  0.63070325     0.24200
C298        C  0.40099023  0.19986280  0.61231462    -0.23900
C299        C  0.43046963  0.17027643  0.10677572     0.19100
C300        C  0.98056292  0.17417923  0.09059536     0.24100
C301        C  0.00059162  0.20785923  0.58621575    -0.23900
C302        C  0.98352746  0.23866167  0.61362251     0.19000
F303        F  0.01217920  0.27637548  0.61749032    -0.13800
F304        F  0.41397298  0.26417625  0.65053259    -0.16200
F305        F  0.99888733  0.14027388  0.07485967    -0.16200
F306        F  0.40123586  0.13240523  0.11018061    -0.13800
C307        C  0.31760652  0.24884246  0.86384820     0.24200
C308        C  0.32870686  0.29972241  0.38394680    -0.23900
C309        C  0.29374917  0.32655458  0.38582988     0.19100
C310        C  0.24408534  0.30842900  0.39724789     0.24100
C311        C  0.23071610  0.26448829  0.39823451    -0.23900
C312        C  0.26962066  0.22528205  0.87369607     0.19000
F313        F  0.26178134  0.18311228  0.87311773    -0.13800
F314        F  0.35674659  0.22956065  0.85167290    -0.16200
F315        F  0.21210551  0.33250369  0.41543719    -0.16200
F316        F  0.30836781  0.36769353  0.39263564    -0.13800
C317        C  0.39557187  0.45548134  0.76555813     0.24200
C318        C  0.41553826  0.43622573  0.80122366    -0.23900
C319        C  0.93919354  0.46248532  0.83250634     0.19100
C320        C  0.90296387  0.01170828  0.82996244     0.24100
C321        C  0.90656537  0.01846346  0.78215848    -0.23900
C322        C  0.37549470  0.99138390  0.75677662     0.19000
F323        F  0.37533749  0.99886100  0.71140427    -0.13800
F324        F  0.36422979  0.43187423  0.73965830    -0.16200
F325        F  0.92842027  0.03962977  0.85649355    -0.16200
F326        F  0.95556197  0.44522333  0.86950550    -0.13800
C327        C  0.11597951  0.28152364  0.66311026     0.24200
C328        C  0.61602867  0.30742678  0.70010128    -0.23900
C329        C  0.63012043  0.29251929  0.74138760     0.19100
C330        C  0.61956760  0.24965870  0.75146226     0.24100
C331        C  0.10179696  0.22332197  0.71752231    -0.23900
C332        C  0.10755168  0.23851936  0.67202717     0.19000
F333        F  0.09781986  0.21198533  0.63795930    -0.13800
F334        F  0.11283608  0.29735950  0.62072063    -0.16200
F335        F  0.61820512  0.23518953  0.79529239    -0.16200
F336        F  0.63921280  0.31887950  0.77581832    -0.13800
C337        C  0.41901814  0.64200837  0.34250863     0.80800
N338        N  0.42098032  0.66956448  0.37681708    -0.77500
C339        C  0.38079722  0.66851699  0.40836215     0.83300
N340        N  0.33937025  0.63903976  0.40570455    -0.77400
C341        C  0.33735548  0.61146390  0.37138970     0.83400
N342        N  0.37718483  0.61358992  0.33999881    -0.79100
C343        C  0.37576367  0.84161431  0.09288112     0.80800
N344        N  0.40597501  0.84168484  0.12738607    -0.77500
C345        C  0.40683622  0.87147911  0.15928769     0.83300
N346        N  0.37769123  0.90116163  0.15650701    -0.77400
C347        C  0.34670277  0.90112468  0.12315331     0.83400
N348        N  0.34557735  0.87109232  0.09130874    -0.79100
C349        C  0.11224648  0.91663171  0.42399973     0.80800
N350        N  0.07653834  0.91540972  0.39498454    -0.77500
C351        C  0.04394413  0.87998912  0.38990657     0.83300
N352        N  0.04752064  0.84446236  0.41449170    -0.77400
C353        C  0.08262496  0.84563081  0.44500408     0.83400
N354        N  0.11564747  0.88153443  0.44843160    -0.79100
C355        C  0.18230702  0.58261469  0.09489504     0.80800
N356        N  0.14537179  0.57954553  0.12973888    -0.77500
C357        C  0.11295413  0.60683099  0.13212682     0.83300
N358        N  0.11836167  0.63796037  0.09951965    -0.77400
C359        C  0.15537570  0.64206046  0.06461451     0.83400
N360        N  0.18783499  0.61421207  0.06225000    -0.79100
O361        O  0.08548008  0.59968837  0.21254963    -0.71200
O362        O  0.49923447  0.62700496  0.31417799    -0.71400
O363        O  0.00533668  0.55919583  0.26770636    -0.71300
O364        O  0.08050501  0.66673723  0.26152893    -0.71300
O365        O  0.53461311  0.68569953  0.21094749    -0.71200
O366        O  0.45236865  0.57876402  0.22467574    -0.71200
O367        O  0.45335761  0.64978147  0.26597695    -0.71200
O368        O  0.03375212  0.61637519  0.16645559    -0.71400
V369        V  0.04182402  0.61335509  0.26289090     1.35200
V370        V  0.49460937  0.63214872  0.21765933     1.35200
C371        C  0.07541110  0.60618813  0.17197442     0.78100
C372        C  0.46032402  0.64166992  0.30674222     0.78100
C373        C  0.96317807  0.55236015  0.25284233     0.78000
C374        C  0.07141728  0.69417203  0.23431546     0.77900
O375        O  0.09016509  0.74494118  0.06612981    -0.71200
O376        O  0.20470483  0.77883337  0.98398259    -0.71400
O377        O  0.11138423  0.81190288  0.50680440    -0.71300
O378        O  0.17274008  0.71490784  0.04820150    -0.71300
O379        O  0.14039447  0.67676541  0.99544718    -0.71200
O380        O  0.08855578  0.77237844  0.45142250    -0.71200
O381        O  0.17994708  0.75582580  0.43732869    -0.71200
O382        O  0.06500494  0.70491736  0.51244402    -0.71400
V383        V  0.14707155  0.76097953  0.02416021     1.35200
V384        V  0.12292786  0.73102027  0.47605681     1.35200
C385        C  0.05609611  0.71705178  0.05512367     0.78100
C386        C  0.20533691  0.76939123  0.94250299     0.78100
C387        C  0.09215326  0.80775697  0.46941308     0.78000
C388        C  0.16007107  0.67906373  0.03293615     0.77900
O389        O  0.28272342  0.93307839  0.09403584    -0.71200
O390        O  0.19826432  0.51400789  0.08560027    -0.71400
O391        O  0.30854547  0.01046165  0.05736245    -0.71300
O392        O  0.19033768  0.95058118  0.12103522    -0.71300
O393        O  0.24714594  0.51255529  0.18888403    -0.71200
O394        O  0.32498561  0.51319536  0.07735240    -0.71200
O395        O  0.25586881  0.55798955  0.11296112    -0.71200
O396        O  0.31950351  0.96368964  0.14939774    -0.71400
V397        V  0.25023897  0.98023430  0.08904866     1.35200
V398        V  0.28468349  0.51149091  0.13242627     1.35200
C399        C  0.31494775  0.93382157  0.12216686     0.78100
C400        C  0.21514310  0.55106510  0.09496731     0.78100
C401        C  0.33295352  0.04083930  0.07656899     0.78000
C402        C  0.18862548  0.94881352  0.16416826     0.77900
O403        O  0.02671868  0.90750284  0.31910744    -0.71200
O404        O  0.46650251  0.90239164  0.20753943    -0.71400
O405        O  0.94738391  0.93318642  0.28847213    -0.71300
O406        O  0.04719201  0.87714109  0.23813574    -0.70700
O407        O  0.50393785  0.81869449  0.26677809    -0.71200
O408        O  0.39788229  0.87464299  0.30708008    -0.71200
O409        O  0.42551528  0.84085731  0.22865514    -0.71200
O410        O  0.97782290  0.85070237  0.34503387    -0.71400
V411        V  0.99594150  0.90392141  0.26380853     1.35200
V412        V  0.45199243  0.84726524  0.28646812     1.35200
C413        C  0.01390342  0.87942127  0.35044915     0.78100
C414        C  0.43541885  0.87081013  0.19924412     0.78100
C415        C  0.40498516  0.91401374  0.30347222     0.78000
C416        C  0.54400138  0.83882790  0.24720224     0.77900
O417        O  0.14343056  0.98912988  0.42398673    -0.71200
O418        O  0.26222579  0.56826849  0.40432383    -0.71400
O419        O  0.17004725  0.53201085  0.38307512    -0.71300
O420        O  0.27437178  0.49687055  0.44386556    -0.71300
O421        O  0.26814449  0.00546264  0.42958901    -0.71200
O422        O  0.21403300  0.98599141  0.31942487    -0.71200
O423        O  0.30049553  0.54562601  0.34449194    -0.71200
O424        O  0.19537058  0.94844063  0.40065932    -0.71400
V425        V  0.22258484  0.51398213  0.41329913     1.35200
V426        V  0.23958992  0.99668809  0.37518520     1.35200
C427        C  0.15283994  0.95262844  0.41880759     0.78100
C428        C  0.29741325  0.57431967  0.37268223     0.78100
C429        C  0.17326372  0.53059949  0.33996784     0.78000
C430        C  0.30726197  0.48009922  0.42151832     0.77900
O431        O  0.34270128  0.70112221  0.47133510    -0.71200
O432        O  0.33809281  0.78485492  0.04958042    -0.71400
O433        O  0.32811479  0.77395684  0.96051736    -0.71300
O434        O  0.35571741  0.70625593  0.05675628    -0.71300
O435        O  0.43244570  0.72650309  0.53960404    -0.71200
O436        O  0.40735169  0.80570599  0.45293393    -0.71200
O437        O  0.41731533  0.80670667  0.03427993    -0.71200
O438        O  0.42021245  0.72568339  0.45006185    -0.71400
V439        V  0.34372940  0.74086833  0.00777182     1.35200
V440        V  0.41832165  0.76549251  0.49709771     1.35200
C441        C  0.38148312  0.69952501  0.44489925     0.78100
C442        C  0.37681613  0.81003546  0.05716605     0.78100
C443        C  0.36154917  0.79662352  0.93447462     0.78000
C444        C  0.40017533  0.70672407  0.06431234     0.77900
C445        C  0.38274956  0.06434825  0.00783658     0.24200
C446        C  0.35966522  0.07669524  0.04829277    -0.23900
C447        C  0.38015023  0.50934435  0.98778627     0.19100
C448        C  0.38402535  0.52138167  0.43953576     0.24100
C449        C  0.30057391  0.06010011  0.47388318    -0.23900
C450        C  0.34875374  0.04906639  0.46824611     0.19000
F451        F  0.36170914  0.02363857  0.43504040    -0.13800
F452        F  0.42562831  0.04863296  0.00835740    -0.16200
F453        F  0.38469326  0.54978674  0.40530347    -0.16200
F454        F  0.38811422  0.54881211  0.00292664    -0.13800
C455        C  0.17774771  0.55653959  0.23613390     0.24200
C456        C  0.14340985  0.93527634  0.19448900    -0.23900
C457        C  0.11696427  0.96837805  0.20383686     0.19100
C458        C  0.12089376  0.98780743  0.24589103     0.24100
C459        C  0.14425978  0.96960482  0.27963676    -0.23900
C460        C  0.15740968  0.57059380  0.27718697     0.19000
F461        F  0.17367891  0.61023257  0.28911673    -0.13800
F462        F  0.21037412  0.58380025  0.20791986    -0.16200
F463        F  0.10847622  0.02621749  0.25112558    -0.16200
F464        F  0.10097724  0.98880055  0.16885042    -0.13800
C465        C  0.44064338  0.71261748  0.13130015     0.24200
C466        C  0.41394900  0.68421153  0.10361625    -0.23900
C467        C  0.43569826  0.64686242  0.58246309     0.19100
C468        C  0.98694415  0.65581198  0.56962636     0.24100
C469        C  0.01458855  0.69812523  0.08794704    -0.23900
C470        C  0.99201971  0.72285131  0.11947951     0.19000
F471        F  0.01601074  0.76058128  0.13054541    -0.13800
F472        F  0.41696992  0.74057027  0.15420409    -0.16200
F473        F  0.00808395  0.63123794  0.53962101    -0.16200
F474        F  0.40769257  0.61525612  0.56273462    -0.13800
C475        C  0.32502535  0.80560702  0.37547059     0.24200
C476        C  0.34572421  0.81620235  0.89410296    -0.23900
C477        C  0.31676565  0.84649832  0.90703465     0.19100
C478        C  0.26572818  0.83295449  0.91791701     0.24100
C479        C  0.24528871  0.79135271  0.90957050    -0.23900
C480        C  0.27362070  0.79254790  0.38536404     0.19000
F481        F  0.25099364  0.75766780  0.36639879    -0.13800
F482        F  0.35109748  0.78248231  0.34769586    -0.16200
F483        F  0.23866517  0.85739525  0.94296286    -0.16200
F484        F  0.33850261  0.88267144  0.92403840    -0.13800
C485        C  0.35164275  0.95329267  0.26998390     0.24200
C486        C  0.36565063  0.93916241  0.31169833    -0.23900
C487        C  0.87829390  0.96971286  0.34337183     0.19100
C488        C  0.93018759  0.50329403  0.31851046     0.24100
C489        C  0.92721164  0.51623564  0.27279524    -0.23900
C490        C  0.39237012  0.49238579  0.24768124     0.19000
F491        F  0.38494121  0.50545096  0.20516718    -0.13800
F492        F  0.32929326  0.92521092  0.24181747    -0.16200
F493        F  0.95953213  0.52734538  0.34584392    -0.16200
F494        F  0.88464095  0.95782268  0.38658346    -0.13800
C495        C  0.09472230  0.80186674  0.19550349     0.24200
C496        C  0.58604511  0.81746312  0.23874631    -0.23900
C497        C  0.59998213  0.79746062  0.27704335     0.19100
C498        C  0.60575898  0.75588496  0.27445891     0.24100
C499        C  0.09959335  0.73631745  0.23292242    -0.23900
C500        C  0.10267856  0.76073555  0.19267712     0.19000
F501        F  0.10433894  0.74250238  0.15188341    -0.13800
F502        F  0.08621517  0.82315311  0.15759892    -0.16200
F503        F  0.60632293  0.73327407  0.31372998    -0.16200
F504        F  0.59618434  0.81463202  0.31859186    -0.13800
C505        C  0.43466757  0.64058392  0.84025763     0.80800
N506        N  0.43250277  0.66746256  0.87501529    -0.77500
C507        C  0.39053978  0.66407873  0.90491769     0.83300
N508        N  0.35129303  0.63314267  0.89988128    -0.77400
C509        C  0.35342658  0.60610177  0.86515931     0.83400
N510        N  0.39506098  0.61031491  0.83564604    -0.79100
C511        C  0.37684786  0.84309527  0.60051109     0.80800
N512        N  0.40536510  0.84333898  0.63626546    -0.77500
C513        C  0.40455815  0.87324052  0.66796348     0.83300
N514        N  0.37559787  0.90294205  0.66358483    -0.77400
C515        C  0.34622159  0.90262886  0.62886154     0.83400
N516        N  0.34665985  0.87239372  0.59745623    -0.79100
C517        C  0.11582892  0.91710636  0.92915823     0.80800
N518        N  0.07863617  0.91685217  0.90176860    -0.77500
C519        C  0.04596322  0.88154756  0.89618641     0.83300
N520        N  0.05097047  0.84530209  0.91850302    -0.77400
C521        C  0.08771322  0.84526574  0.94707506     0.83400
N522        N  0.12076681  0.88104324  0.95110991    -0.79100
C523        C  0.21434242  0.60255994  0.59804578     0.80800
N524        N  0.17698724  0.59567590  0.63278206    -0.77500
C525        C  0.13967282  0.61843947  0.63520058     0.83300
N526        N  0.14044038  0.64897675  0.60300293    -0.77400
C527        C  0.17710606  0.65693578  0.56813095     0.83400
N528        N  0.21426102  0.63315986  0.56496289    -0.79100
O529        O  0.11020253  0.60888530  0.71497781    -0.71200
O530        O  0.51835514  0.63221804  0.81419431    -0.71400
O531        O  0.03145166  0.56495102  0.76947549    -0.71300
O532        O  0.09834308  0.67551044  0.76169868    -0.71300
O533        O  0.55155479  0.69020016  0.70980849    -0.71200
O534        O  0.47761119  0.58011203  0.72476545    -0.71200
O535        O  0.47132527  0.65074045  0.76447854    -0.71200
O536        O  0.05768952  0.62082895  0.66742145    -0.71400
V537        V  0.06376105  0.62053464  0.76401447     1.35200
V538        V  0.51564679  0.63508444  0.71732501     1.35200
C539        C  0.10058454  0.61399818  0.67409739     0.78100
C540        C  0.47777339  0.64351602  0.80560112     0.78100
C541        C  0.98995400  0.55532042  0.75381245     0.78000
C542        C  0.08782277  0.70130257  0.73324577     0.77900
O543        O  0.08660401  0.74541525  0.56721788    -0.71200
O544        O  0.20155578  0.79568839  0.49275200    -0.71400
O545        O  0.12227004  0.80843161  0.00312507    -0.71300
O546        O  0.17791980  0.72885885  0.55384917    -0.71300
O547        O  0.15628605  0.68819779  0.49909175    -0.71200
O548        O  0.08655707  0.77075469  0.95160887    -0.71200
O549        O  0.17097288  0.74200679  0.93082005    -0.71200
O550        O  0.05766493  0.70570356  0.01433573    -0.71400
V551        V  0.14404152  0.76955231  0.52902908     1.35200
V552        V  0.11471170  0.72452896  0.97387173     1.35200
C553        C  0.05743717  0.71517374  0.55335111     0.78100
C554        C  0.20810941  0.78674021  0.45132109     0.78100
C555        C  0.09770165  0.80620801  0.96869941     0.78000
C556        C  0.17446772  0.69308509  0.53715587     0.77900
O557        O  0.28337556  0.93387758  0.59646152    -0.71200
O558        O  0.23695787  0.53833163  0.57605189    -0.71400
O559        O  0.30906821  0.00921960  0.55504537    -0.71300
O560        O  0.19128644  0.95252037  0.62167571    -0.71300
O561        O  0.26550725  0.51682638  0.68685021    -0.71200
O562        O  0.36067546  0.53400351  0.58472220    -0.71200
O563        O  0.28514152  0.57441116  0.62057400    -0.71200
O564        O  0.31944438  0.96649579  0.65103300    -0.71400
V565        V  0.25103930  0.98084217  0.58846152     1.35200
V566        V  0.31129253  0.52436834  0.63464306     1.35200
C567        C  0.31494135  0.93550949  0.62537810     0.78100
C568        C  0.24943757  0.57217278  0.59539080     0.78100
C569        C  0.33442795  0.04018886  0.57235548     0.78000
C570        C  0.18927922  0.95321759  0.66472418     0.77900
O571        O  0.02725689  0.90949133  0.82613146    -0.71200
O572        O  0.46270922  0.90535654  0.71695362    -0.71400
O573        O  0.94662511  0.93536775  0.79877772    -0.71300
O574        O  0.04455904  0.87973253  0.74419006    -0.70700
O575        O  0.50283690  0.82134621  0.77485867    -0.71200
O576        O  0.39666083  0.87682090  0.81591610    -0.71200
O577        O  0.42381232  0.84300840  0.73750201    -0.71200
O578        O  0.97765598  0.85344367  0.85320656    -0.71400
V579        V  0.99431298  0.90638372  0.77202158     1.35200
V580        V  0.45086170  0.84967205  0.79508335     1.35200
C581        C  0.01461104  0.88166597  0.85772881     0.78100
C582        C  0.43249937  0.87328891  0.70844539     0.78100
C583        C  0.40392492  0.91620540  0.81311519     0.78000
C584        C  0.54180561  0.84147854  0.75341036     0.77900
O585        O  0.14697465  0.98991406  0.92502078    -0.71200
O586        O  0.27863429  0.56144667  0.89411088    -0.71400
O587        O  0.18642356  0.52290087  0.87518679    -0.71300
O588        O  0.29650125  0.49036546  0.92839592    -0.71300
O589        O  0.27378300  0.00710895  0.93449426    -0.71200
O590        O  0.21881941  0.98015063  0.82578856    -0.71200
O591        O  0.31788569  0.54164820  0.83315533    -0.71200
O592        O  0.20007607  0.94815947  0.90934172    -0.71400
V593        V  0.24200400  0.50637642  0.90197614     1.35200
V594        V  0.24494044  0.99460329  0.88072734     1.35200
C595        C  0.15655729  0.95314521  0.92374671     0.78100
C596        C  0.31431914  0.56885700  0.86317434     0.78100
C597        C  0.18827814  0.52337420  0.83201746     0.78000
C598        C  0.32835663  0.47352293  0.90448463     0.77900
O599        O  0.34695274  0.69633348  0.96603775    -0.71200
O600        O  0.33874175  0.78821422  0.55606241    -0.71400
O601        O  0.32873705  0.78027229  0.46685816    -0.71300
O602        O  0.35371200  0.70831824  0.56153490    -0.71300
O603        O  0.43441013  0.72861658  0.03797327    -0.71200
O604        O  0.40622996  0.79933949  0.94306983    -0.71200
O605        O  0.41894142  0.80587709  0.54376931    -0.71200
O606        O  0.42491625  0.72153178  0.94795004    -0.71400
V607        V  0.34242464  0.74494828  0.51356221     1.35200
V608        V  0.41923742  0.76360524  0.99135101     1.35200
C609        C  0.38727676  0.69487337  0.94148240     0.78100
C610        C  0.37830315  0.81111267  0.56537938     0.78100
C611        C  0.36323533  0.80494062  0.44382232     0.78000
C612        C  0.39823214  0.70514361  0.56618223     0.77900
C613        C  0.38132535  0.06026904  0.50144862     0.24200
C614        C  0.36050763  0.07471571  0.54183836    -0.23900
C615        C  0.40332444  0.53426697  0.47993303     0.19100
C616        C  0.39685187  0.50183962  0.94294696     0.24100
C617        C  0.30308670  0.06338758  0.97810759    -0.23900
C618        C  0.35210727  0.05416967  0.97296417     0.19000
F619        F  0.36771123  0.03142047  0.93826658    -0.13800
F620        F  0.42341055  0.04333272  0.50155876    -0.16200
F621        F  0.41871638  0.53476855  0.91498328    -0.16200
F622        F  0.41825249  0.57551320  0.48573897    -0.13800
C623        C  0.19065061  0.55705243  0.73202835     0.24200
C624        C  0.14470431  0.93796420  0.69524689    -0.23900
C625        C  0.11875870  0.97050792  0.70832124     0.19100
C626        C  0.12532048  0.98786572  0.75109055     0.24100
C627        C  0.15137934  0.96831242  0.78169025    -0.23900
C628        C  0.16831422  0.56646493  0.77438766     0.19000
F629        F  0.18161315  0.60504353  0.79061849    -0.13800
F630        F  0.22462568  0.58705355  0.70874759    -0.16200
F631        F  0.11220697  0.02554538  0.75997051    -0.16200
F632        F  0.10049079  0.99246431  0.67598332    -0.13800
C633        C  0.44099160  0.70377775  0.63159588     0.24200
C634        C  0.41295717  0.67873357  0.60186894    -0.23900
C635        C  0.43688746  0.65053139  0.08975023     0.19100
C636        C  0.98839353  0.65843513  0.07920519     0.24100
C637        C  0.01401714  0.69363148  0.58302848    -0.23900
C638        C  0.99225251  0.71449073  0.61913690     0.19000
F639        F  0.01733060  0.74929772  0.63610244    -0.13800
F640        F  0.41829806  0.72887826  0.65972870    -0.16200
F641        F  0.01079455  0.63104992  0.05402145    -0.16200
F642        F  0.40991513  0.61701374  0.07190117    -0.13800
C643        C  0.32303793  0.78485076  0.86683432     0.24200
C644        C  0.34968484  0.83101444  0.40720427    -0.23900
C645        C  0.32396070  0.86152633  0.42574430     0.19100
C646        C  0.27246974  0.85024060  0.43574609     0.24100
C647        C  0.24897745  0.81139178  0.42130208    -0.23900
C648        C  0.27218796  0.76938795  0.87827473     0.19000
F649        F  0.25262850  0.73058848  0.86598536    -0.13800
F650        F  0.35154702  0.76027346  0.84377173    -0.16200
F651        F  0.24785283  0.87312707  0.46514109    -0.16200
F652        F  0.34852280  0.89323586  0.44829847    -0.13800
C653        C  0.35033053  0.95347839  0.77764483     0.24200
C654        C  0.36432797  0.94130973  0.82017202    -0.23900
C655        C  0.87778666  0.97354845  0.84958777     0.19100
C656        C  0.96174623  0.50277536  0.81758194     0.24100
C657        C  0.95608187  0.51771585  0.77321333    -0.23900
C658        C  0.41881004  0.49553743  0.74913154     0.19000
F659        F  0.40870832  0.51054666  0.70826311    -0.13800
F660        F  0.32649189  0.92423490  0.75156577    -0.16200
F661        F  0.99310381  0.52519393  0.84457158    -0.16200
F662        F  0.88306925  0.96392533  0.89374121    -0.13800
C663        C  0.09240365  0.80703499  0.69798059     0.24200
C664        C  0.58338422  0.82029808  0.74240751    -0.23900
C665        C  0.60250713  0.80181081  0.77888836     0.19100
C666        C  0.61847276  0.76373870  0.77302844     0.24100
C667        C  0.11296251  0.74459417  0.73116697    -0.23900
C668        C  0.10932698  0.76918709  0.69232284     0.19000
F669        F  0.11273156  0.75285255  0.65052499    -0.13800
F670        F  0.07720126  0.82667281  0.66192558    -0.16200
F671        F  0.62781876  0.74197998  0.81030260    -0.16200
F672        F  0.59691027  0.81643149  0.82158312    -0.13800
C673        C  0.89967984  0.14360534  0.33951972     0.80800
N674        N  0.90113408  0.16561035  0.37814063    -0.77500
C675        C  0.85942773  0.16367945  0.40781072     0.83300
N676        N  0.81633349  0.13869096  0.39838897    -0.77400
C677        C  0.81526195  0.11576351  0.35975786     0.83400
N678        N  0.85714092  0.11848384  0.33107666    -0.79100
C679        C  0.86513474  0.34723270  0.08729745     0.80800
N680        N  0.90489980  0.35032643  0.11223123    -0.77500
C681        C  0.90950410  0.37686578  0.14704476     0.83300
N682        N  0.87421561  0.40116086  0.15672702    -0.77400
C683        C  0.83320258  0.39788607  0.13339660     0.83400
N684        N  0.82840705  0.37013519  0.09896018    -0.79100
C685        C  0.63686591  0.39963427  0.39614969     0.80800
N686        N  0.60439333  0.39928941  0.36433930    -0.77500
C687        C  0.56605352  0.36742462  0.36267944     0.83300
N688        N  0.56159421  0.33358802  0.39229312    -0.77400
C689        C  0.59389420  0.33357359  0.42525904     0.83400
N690        N  0.63087670  0.36724443  0.42736894    -0.79100
C691        C  0.67301852  0.07799251  0.11132634     0.80800
N692        N  0.63597676  0.07650765  0.14574634    -0.77500
C693        C  0.59826463  0.09828798  0.14162616     0.83300
N694        N  0.59905788  0.12321111  0.10363072    -0.77400
C695        C  0.63634126  0.12617493  0.06926245     0.83400
N696        N  0.67332729  0.10312324  0.07315641    -0.79100
O697        O  0.56786038  0.09471365  0.22118625    -0.71200
O698        O  0.98158251  0.13080811  0.31664536    -0.71400
O699        O  0.48430693  0.05988588  0.27671741    -0.71300
O700        O  0.56544766  0.16540086  0.26337380    -0.71300
O701        O  0.02153757  0.18250456  0.21016915    -0.71200
O702        O  0.93546973  0.07830632  0.22860682    -0.71200
O703        O  0.93794754  0.15115403  0.26491122    -0.71200
O704        O  0.51914589  0.11062632  0.17168668    -0.71400
V705        V  0.52404047  0.11287561  0.26838411     1.35200
V706        V  0.97956848  0.13025667  0.21971553     1.35200
C707        C  0.55968607  0.09970215  0.17981124     0.78100
C708        C  0.94299577  0.14433900  0.30639099     0.78100
C709        C  0.44327410  0.05328117  0.25960919     0.78000
C710        C  0.55882808  0.19097942  0.23278006     0.77900
O711        O  0.59281116  0.24443877  0.05619368    -0.71200
O712        O  0.70172065  0.24604686  0.96604682    -0.71400
O713        O  0.62048753  0.29835167  0.48809242    -0.71300
O714        O  0.66210511  0.19649590  0.04172187    -0.71300
O715        O  0.61427387  0.15704860  0.99965480    -0.71200
O716        O  0.57794189  0.25876766  0.44221449    -0.71200
O717        O  0.65487593  0.21955540  0.42580319    -0.71200
O718        O  0.54166477  0.20166870  0.51298171    -0.71400
V719        V  0.64693169  0.24435708  0.01062897     1.35200
V720        V  0.59895783  0.21122359  0.47060374     1.35200
C721        C  0.55153227  0.22226143  0.05050543     0.78100
C722        C  0.69500410  0.23073920  0.92743240     0.78100
C723        C  0.59566379  0.29527983  0.45377365     0.78000
C724        C  0.63988875  0.16049277  0.03377882     0.77900
O725        O  0.75575196  0.42274294  0.12728795    -0.71200
O726        O  0.71698923  0.02643136  0.08036539    -0.71400
O727        O  0.76728816  0.46764231  0.05246982    -0.71300
O728        O  0.68609533  0.47109423  0.16342883    -0.71300
O729        O  0.72614208  0.96526653  0.18301262    -0.71200
O730        O  0.82475293  0.04378397  0.11883872    -0.71200
O731        O  0.72957436  0.04294495  0.14992754    -0.71200
O732        O  0.81598239  0.46615859  0.15122499    -0.71400
V733        V  0.72785279  0.46962918  0.10790419     1.35200
V734        V  0.77483771  0.00335178  0.14946867     1.35200
C735        C  0.79932366  0.42946674  0.13968712     0.78100
C736        C  0.70897529  0.04881773  0.11379363     0.78100
C737        C  0.81143738  0.48723968  0.04834860     0.78000
C738        C  0.70169971  0.49697530  0.19254021     0.77900
O739        O  0.54630031  0.39890261  0.29508432    -0.71200
O740        O  0.97978379  0.40226247  0.18731447    -0.71400
O741        O  0.46667493  0.42818743  0.27047239    -0.71300
O742        O  0.56332379  0.37399773  0.21130355    -0.70700
O743        O  0.01937861  0.31437850  0.23586370    -0.71200
O744        O  0.91730304  0.36962633  0.28944686    -0.71200
O745        O  0.93756568  0.34089081  0.20727543    -0.71200
O746        O  0.49853840  0.34095943  0.31853736    -0.71400
V747        V  0.51306245  0.39959381  0.24135411     1.35200
V748        V  0.96902220  0.34241960  0.26215592     1.35200
C749        C  0.53483474  0.36906808  0.32451891     0.78100
C750        C  0.94514646  0.37275707  0.18059156     0.78100
C751        C  0.92519568  0.40910941  0.28777435     0.78000
C752        C  0.06001252  0.33529303  0.21777735     0.77900
O753        O  0.68168823  0.46075471  0.42565928    -0.71200
O754        O  0.72947474  0.08293509  0.36507349    -0.71400
O755        O  0.65397832  0.01991008  0.33958566    -0.71300
O756        O  0.71988756  0.05073114  0.44613350    -0.71300
O757        O  0.80170197  0.47048288  0.38112022    -0.71200
O758        O  0.71001398  0.51765010  0.31974716    -0.71200
O759        O  0.78579229  0.04398253  0.35029909    -0.71200
O760        O  0.70824928  0.44309331  0.35826013    -0.71400
V761        V  0.68726372  0.03489728  0.39325839     1.35200
V762        V  0.75427770  0.49443817  0.35215627     1.35200
C763        C  0.67855525  0.43494120  0.39422062     0.78100
C764        C  0.77476003  0.08009271  0.35550089     0.78100
C765        C  0.67171247  0.99425565  0.31352842     0.78000
C766        C  0.76007427  0.03717118  0.45067480     0.77900
O767        O  0.82286769  0.19749174  0.47224305    -0.71200
O768        O  0.82330552  0.29073900  0.04611638    -0.71400
O769        O  0.80815356  0.27070760  0.95833511    -0.71300
O770        O  0.84546238  0.21511911  0.06165536    -0.71300
O771        O  0.91812621  0.23338410  0.53937788    -0.71200
O772        O  0.88875751  0.29329341  0.43682760    -0.71200
O773        O  0.90111843  0.31344936  0.02426169    -0.71200
O774        O  0.90174834  0.21612702  0.45199025    -0.71400
V775        V  0.82790558  0.24328392  0.00917919     1.35200
V776        V  0.90176050  0.26318283  0.48922308     1.35200
C777        C  0.86122542  0.19256545  0.44661109     0.78100
C778        C  0.86229847  0.31688407  0.04997804     0.78100
C779        C  0.84055712  0.28766519  0.92704996     0.78000
C780        C  0.89103066  0.21944615  0.06791736     0.77900
C781        C  0.84230027  0.43639959  0.99700836     0.24200
C782        C  0.84679772  0.47753265  0.01235135    -0.23900
C783        C  0.82569582  0.10417254  0.04226495     0.19100
C784        C  0.79334682  0.09259683  0.50302388     0.24100
C785        C  0.85536682  0.48134105  0.43886252    -0.23900
C786        C  0.86342950  0.45056879  0.46994961     0.19000
F787        F  0.83999853  0.41052576  0.46866443    -0.13800
F788        F  0.81218292  0.40421816  0.02051298    -0.16200
F789        F  0.75248342  0.11107157  0.50284314    -0.16200
F790        F  0.81145756  0.12729375  0.07730578    -0.13800
C791        C  0.65205940  0.91090140  0.23173310     0.24200
C792        C  0.66821365  0.51359993  0.22698836    -0.23900
C793        C  0.62957580  0.48803943  0.25383754     0.19100
C794        C  0.60991259  0.50337561  0.29481888     0.24100
C795        C  0.63561373  0.54045739  0.31099743    -0.23900
C796        C  0.65263953  0.92822862  0.27457890     0.19000
F797        F  0.67024365  0.90770339  0.30866694    -0.13800
F798        F  0.67544534  0.87758361  0.22425709    -0.16200
F799        F  0.57752559  0.47732722  0.32427849    -0.16200
F800        F  0.61576708  0.44777049  0.24334245    -0.13800
C801        C  0.94127927  0.24064375  0.12682695     0.24200
C802        C  0.90961968  0.20662998  0.11078519    -0.23900
C803        C  0.92163387  0.16357317  0.60613870     0.19100
C804        C  0.47109577  0.16792464  0.58765770     0.24100
C805        C  0.50979196  0.21437698  0.08628161    -0.23900
C806        C  0.49155067  0.24703574  0.10933167     0.19000
F807        F  0.51830275  0.28605829  0.10754698    -0.13800
F808        F  0.92154251  0.27335127  0.14363888    -0.16200
F809        F  0.48892766  0.13476811  0.56930647    -0.16200
F810        F  0.89316324  0.12549726  0.61280342    -0.13800
C811        C  0.81334288  0.26125958  0.36404617     0.24200
C812        C  0.82604600  0.28962057  0.88010725    -0.23900
C813        C  0.78732586  0.31199869  0.87512994     0.19100
C814        C  0.73883083  0.28985986  0.87942235     0.24100
C815        C  0.73086016  0.24649346  0.88812600    -0.23900
C816        C  0.76390582  0.24140117  0.37567296     0.19000
F817        F  0.75118543  0.19958124  0.37183695    -0.13800
F818        F  0.84784673  0.23822705  0.34825832    -0.16200
F819        F  0.70021097  0.31060029  0.88072760    -0.16200
F820        F  0.79528782  0.35424781  0.87556472    -0.13800
C821        C  0.86943238  0.45254070  0.26517738     0.24200
C822        C  0.88843856  0.43510696  0.30266078    -0.23900
C823        C  0.40778940  0.46312483  0.33440333     0.19100
C824        C  0.40127655  0.00942349  0.32648708     0.24100
C825        C  0.40485606  0.01898620  0.27921259    -0.23900
C826        C  0.87509576  0.99275516  0.25195812     0.19000
F827        F  0.87460748  0.00291076  0.20717394    -0.13800
F828        F  0.83933465  0.42744167  0.23958917    -0.16200
F829        F  0.42487245  0.03646863  0.35506550    -0.16200
F830        F  0.42144458  0.44785712  0.37374727    -0.13800
C831        C  0.60680618  0.29113675  0.17292967     0.24200
C832        C  0.10372992  0.31502096  0.21148511    -0.23900
C833        C  0.11589359  0.29851507  0.25276675     0.19100
C834        C  0.10723298  0.25527239  0.26001015     0.24100
C835        C  0.59255142  0.23040511  0.22382451    -0.23900
C836        C  0.59984943  0.24788018  0.17929380     0.19000
F837        F  0.59404138  0.22296872  0.14332203    -0.13800
F838        F  0.60663177  0.30877438  0.13080061    -0.16200
F839        F  0.10471507  0.23871068  0.30310847    -0.16200
F840        F  0.12123515  0.32306189  0.28923987    -0.13800
C841        C  0.90924416  0.13946896  0.84244008     0.80800
N842        N  0.91014365  0.16293564  0.88010901    -0.77500
C843        C  0.86828866  0.16100575  0.90968060     0.83300
N844        N  0.82576262  0.13497101  0.90077740    -0.77400
C845        C  0.82503385  0.11117421  0.86284385     0.83400
N846        N  0.86703181  0.11357836  0.83448058    -0.79100
C847        C  0.87260121  0.34805508  0.58717986     0.80800
N848        N  0.91211854  0.34867998  0.61187368    -0.77500
C849        C  0.92123971  0.37698871  0.64427076     0.83300
N850        N  0.89048308  0.40561315  0.65204268    -0.77400
C851        C  0.84962579  0.40505896  0.62863594     0.83400
N852        N  0.84048331  0.37562947  0.59630605    -0.79100
C853        C  0.65781388  0.39249493  0.88467521     0.80800
N854        N  0.62656567  0.39132156  0.85188888    -0.77500
C855        C  0.58624006  0.36119626  0.85210804     0.83300
N856        N  0.57831814  0.32953582  0.88463817    -0.77400
C857        C  0.60935254  0.33012226  0.91863074     0.83400
N858        N  0.64830951  0.36267560  0.91922843    -0.79100
C859        C  0.67484532  0.07991649  0.60623123     0.80800
N860        N  0.63702912  0.07584198  0.64005779    -0.77500
C861        C  0.59880310  0.09708039  0.63736538     0.83300
N862        N  0.59991221  0.12453100  0.60149342    -0.77400
C863        C  0.63809032  0.13033659  0.56771970     0.83400
N864        N  0.67564802  0.10744455  0.56991334    -0.79100
O865        O  0.57018948  0.08968135  0.71695673    -0.71200
O866        O  0.99030682  0.12659119  0.81648961    -0.71400
O867        O  0.48815616  0.05595882  0.77534201    -0.71300
O868        O  0.57277265  0.15998603  0.76000138    -0.71300
O869        O  0.02681770  0.17866469  0.70935202    -0.71200
O870        O  0.93778994  0.07641381  0.73003071    -0.71200
O871        O  0.94522473  0.14909075  0.76730799    -0.71200
O872        O  0.51974949  0.10740346  0.67003711    -0.71400
V873        V  0.52953783  0.10825408  0.76616305     1.35200
V874        V  0.98341732  0.12742230  0.72004688     1.35200
C875        C  0.56064577  0.09619198  0.67626822     0.78100
C876        C  0.95177129  0.14121126  0.80821490     0.78100
C877        C  0.44595091  0.05090630  0.76030962     0.78000
C878        C  0.56588425  0.18572420  0.72965011     0.77900
O879        O  0.58082882  0.24399490  0.55853537    -0.71200
O880        O  0.69519586  0.25786100  0.47430455    -0.71400
O881        O  0.63428131  0.29423261  0.98205259    -0.71300
O882        O  0.65650308  0.20279717  0.54583298    -0.71300
O883        O  0.61811764  0.16239953  0.49804911    -0.71200
O884        O  0.58652169  0.25617234  0.93874449    -0.71200
O885        O  0.65441974  0.20737817  0.92274242    -0.71200
O886        O  0.54630302  0.20520061  0.01281841    -0.71400
V887        V  0.63758058  0.24975626  0.51573666     1.35200
V888        V  0.60137182  0.20707280  0.96931057     1.35200
C889        C  0.54286996  0.21834877  0.55132083     0.78100
C890        C  0.69253477  0.24523302  0.43415977     0.78100
C891        C  0.60826643  0.29211795  0.94859506     0.78000
C892        C  0.64034557  0.16615584  0.53421567     0.77900
O893        O  0.78074709  0.43870726  0.61344023    -0.71200
O894        O  0.71791792  0.02680232  0.57701853    -0.71400
O895        O  0.80916446  0.49384387  0.54632840    -0.71300
O896        O  0.70902058  0.48537416  0.64653876    -0.71300
O897        O  0.72625160  0.97161877  0.68302315    -0.71200
O898        O  0.82734822  0.04490492  0.61449843    -0.71200
O899        O  0.73297882  0.04758198  0.64472818    -0.71200
O900        O  0.83823429  0.47492507  0.64894430    -0.71400
V901        V  0.75995557  0.48966182  0.59639101     1.35200
V902        V  0.77631111  0.00697823  0.64745982     1.35200
C903        C  0.82072860  0.44041993  0.63221248     0.78100
C904        C  0.71154940  0.05148712  0.60871109     0.78100
C905        C  0.85293218  0.51277746  0.55023656     0.78000
C906        C  0.72027530  0.50363998  0.68270561     0.77900
O907        O  0.56879036  0.39125948  0.78324083    -0.71200
O908        O  0.99399166  0.40037489  0.68202441    -0.71400
O909        O  0.49044274  0.42529991  0.76583436    -0.71300
O910        O  0.57705138  0.36706839  0.69873375    -0.70700
O911        O  0.03290774  0.30895532  0.72767479    -0.71200
O912        O  0.93673300  0.36884913  0.78373585    -0.71200
O913        O  0.95181259  0.33886113  0.70138920    -0.71200
O914        O  0.51629947  0.33698943  0.81039992    -0.71400
V915        V  0.53158330  0.39480680  0.73269165     1.35200
V916        V  0.98522633  0.33918474  0.75506290     1.35200
C917        C  0.55522054  0.36297606  0.81418508     0.78100
C918        C  0.95814448  0.37166511  0.67618263     0.78100
C919        C  0.94841900  0.40813421  0.78381291     0.78000
C920        C  0.07302272  0.32852690  0.70699821     0.77900
O921        O  0.70434848  0.45222555  0.91429679    -0.71200
O922        O  0.73841443  0.08119893  0.86719055    -0.71400
O923        O  0.66278057  0.01943624  0.84023535    -0.71300
O924        O  0.72320374  0.05100388  0.94897644    -0.71300
O925        O  0.82140239  0.46535268  0.86405372    -0.71200
O926        O  0.72579774  0.51353437  0.80973797    -0.71200
O927        O  0.79215200  0.03989432  0.85282794    -0.71200
O928        O  0.72665054  0.43791273  0.84449158    -0.71400
V929        V  0.69344050  0.03448571  0.89497769     1.35200
V930        V  0.77212586  0.48987532  0.83888635     1.35200
C931        C  0.69957205  0.42777338  0.88185185     0.78100
C932        C  0.78319927  0.07665943  0.85789475     0.78100
C933        C  0.67857748  0.99109838  0.81696548     0.78000
C934        C  0.76396876  0.03888497  0.95454485     0.77900
O935        O  0.82912806  0.19481884  0.97262608    -0.71200
O936        O  0.82619843  0.29259686  0.54816720    -0.71400
O937        O  0.81042748  0.27593632  0.46051938    -0.71300
O938        O  0.83990947  0.21402777  0.56222930    -0.71300
O939        O  0.92250468  0.23812442  0.03703148    -0.71200
O940        O  0.88552085  0.29389606  0.93503444    -0.71200
O941        O  0.90469302  0.31108045  0.52572230    -0.71200
O942        O  0.90641886  0.21885371  0.95015021    -0.71400
V943        V  0.82628448  0.24527571  0.51033948     1.35200
V944        V  0.90227867  0.26580896  0.98729117     1.35200
C945        C  0.86801389  0.19190751  0.94666484     0.78100
C946        C  0.86676773  0.31696025  0.55118375     0.78100
C947        C  0.84392879  0.29157408  0.42953967     0.78000
C948        C  0.88492197  0.21552781  0.56938429     0.77900
C949        C  0.89024564  0.46355814  0.50670508     0.24200
C950        C  0.89395413  0.50589377  0.51712452    -0.23900
C951        C  0.82682551  0.10248469  0.53591170     0.19100
C952        C  0.79351450  0.09460857  0.00818856     0.24100
C953        C  0.87311269  0.46562889  0.92406787    -0.23900
C954        C  0.86198048  0.43023109  0.95300562     0.19000
F955        F  0.85231883  0.39191958  0.93541840    -0.13800
F956        F  0.89650943  0.43527953  0.53903086    -0.16200
F957        F  0.75187963  0.11198157  0.00759310    -0.16200
F958        F  0.81364085  0.12636772  0.57060577    -0.13800
C959        C  0.65472562  0.91150221  0.73008744     0.24200
C960        C  0.68317115  0.51552599  0.71741123    -0.23900
C961        C  0.64615393  0.48628165  0.74194162     0.19100
C962        C  0.62570773  0.49690588  0.78506264     0.24100
C963        C  0.64884299  0.53313547  0.80498232    -0.23900
C964        C  0.65909087  0.92711781  0.77351767     0.19000
F965        F  0.67796812  0.90462723  0.80510273    -0.13800
F966        F  0.67617896  0.87780041  0.71906253    -0.16200
F967        F  0.59484491  0.46759686  0.81206304    -0.16200
F968        F  0.63503375  0.44690329  0.72733334    -0.13800
C969        C  0.93305874  0.23233279  0.63069650     0.24200
C970        C  0.90101089  0.19989914  0.61231350    -0.23900
C971        C  0.93041919  0.17024600  0.10679867     0.19100
C972        C  0.48062008  0.17424322  0.09058533     0.24100
C973        C  0.50056743  0.20784645  0.58618374    -0.23900
C974        C  0.48350479  0.23863368  0.61361589     0.19000
F975        F  0.51215555  0.27634412  0.61750496    -0.13800
F976        F  0.91399289  0.26423124  0.65049331    -0.16200
F977        F  0.49898460  0.14035364  0.07485716    -0.16200
F978        F  0.90115698  0.13238776  0.11024259    -0.13800
C979        C  0.81765411  0.24881136  0.86381634     0.24200
C980        C  0.82873222  0.29976608  0.38394452    -0.23900
C981        C  0.79378375  0.32660660  0.38584258     0.19100
C982        C  0.74412022  0.30848921  0.39728128     0.24100
C983        C  0.73073688  0.26454926  0.39825421    -0.23900
C984        C  0.76964894  0.22529545  0.87370526     0.19000
F985        F  0.76175462  0.18312274  0.87315453    -0.13800
F986        F  0.85674965  0.22948247  0.85162206    -0.16200
F987        F  0.71215884  0.33256842  0.41549618    -0.16200
F988        F  0.80841881  0.36774412  0.39264457    -0.13800
C989        C  0.89563367  0.45552662  0.76553758     0.24200
C990        C  0.91558190  0.43626475  0.80120986    -0.23900
C991        C  0.43914418  0.46245346  0.83251725     0.19100
C992        C  0.40294008  0.01175511  0.82996662     0.24100
C993        C  0.40653290  0.01851376  0.78216306    -0.23900
C994        C  0.87554108  0.99132671  0.75676726     0.19000
F995        F  0.87540600  0.99879320  0.71139032    -0.13800
F996        F  0.86429974  0.43192524  0.73962632    -0.16200
F997        F  0.42840579  0.03967254  0.85649578    -0.16200
F998        F  0.45552254  0.44519888  0.86951539    -0.13800
C999        C  0.61598696  0.28156966  0.66307530     0.24200
C1000       C  0.11598722  0.30737618  0.70013821    -0.23900
C1001       C  0.13007563  0.29247853  0.74143040     0.19100
C1002       C  0.11956967  0.24961667  0.75149772     0.24100
C1003       C  0.60176032  0.22337118  0.71749348    -0.23900
C1004       C  0.60751609  0.23856548  0.67199785     0.19000
F1005       F  0.59775674  0.21203196  0.63793535    -0.13800
F1006       F  0.61283574  0.29740686  0.62068725    -0.16200
F1007       F  0.11820875  0.23514678  0.79532762    -0.16200
F1008       F  0.13913974  0.31884015  0.77586409    -0.13800
C1009       C  0.91905965  0.64202104  0.34251856     0.80800
N1010       N  0.92100995  0.66958297  0.37682081    -0.77500
C1011       C  0.88082432  0.66853052  0.40836359     0.83300
N1012       N  0.83940517  0.63904322  0.40570927    -0.77400
C1013       C  0.83740164  0.61146162  0.37139941     0.83400
N1014       N  0.87723413  0.61359259  0.34001096    -0.79100
C1015       C  0.87573505  0.84166028  0.09290170     0.80800
N1016       N  0.90593680  0.84172383  0.12741372    -0.77500
C1017       C  0.90680008  0.87151889  0.15931528     0.83300
N1018       N  0.87766573  0.90120924  0.15652674    -0.77400
C1019       C  0.84668672  0.90117871  0.12316495     0.83400
N1020       N  0.84556112  0.87114636  0.09132092    -0.79100
C1021       C  0.61225285  0.91669592  0.42398910     0.80800
N1022       N  0.57655753  0.91545895  0.39495802    -0.77500
C1023       C  0.54397277  0.88003151  0.38988273     0.83300
N1024       N  0.54754879  0.84451388  0.41448448    -0.77400
C1025       C  0.58264073  0.84569735  0.44501057     0.83400
N1026       N  0.61565214  0.88160714  0.44843682    -0.79100
C1027       C  0.68237968  0.58270103  0.09493447     0.80800
N1028       N  0.64542771  0.57959924  0.12976724    -0.77500
C1029       C  0.61297371  0.60685488  0.13215013     0.83300
N1030       N  0.61836162  0.63798861  0.09954926    -0.77400
C1031       C  0.65539017  0.64212216  0.06465479     0.83400
N1032       N  0.68788421  0.61430128  0.06229388    -0.79100
O1033       O  0.58546492  0.59967215  0.21256608    -0.71200
O1034       O  0.99928055  0.62703381  0.31417741    -0.71400
O1035       O  0.50530741  0.55916901  0.26770554    -0.71300
O1036       O  0.58046417  0.66671255  0.26154759    -0.71300
O1037       O  0.03463993  0.68572616  0.21094246    -0.71200
O1038       O  0.95239217  0.57879113  0.22468294    -0.71200
O1039       O  0.95339244  0.64980939  0.26598616    -0.71200
O1040       O  0.53374419  0.61635203  0.16646106    -0.71400
V1041       V  0.54179073  0.61332970  0.26289925     1.35200
V1042       V  0.99463307  0.63217571  0.21766118     1.35200
C1043       C  0.57540879  0.60617898  0.17198820     0.78100
C1044       C  0.96036526  0.64169469  0.30674885     0.78100
C1045       C  0.46314869  0.55233530  0.25284094     0.78000
C1046       C  0.57138130  0.69414655  0.23433102     0.77900
O1047       O  0.59016053  0.74503089  0.06618830    -0.71200
O1048       O  0.70467864  0.77888336  0.98400167    -0.71400
O1049       O  0.61141442  0.81198599  0.50681720    -0.71300
O1050       O  0.67272381  0.71497530  0.04824581    -0.71300
O1051       O  0.64036500  0.67682805  0.99550133    -0.71200
O1052       O  0.58856792  0.77244700  0.45145222    -0.71200
O1053       O  0.67996603  0.75591264  0.43736389    -0.71200
O1054       O  0.56502784  0.70498509  0.51247121    -0.71400
V1055       V  0.64705570  0.76104815  0.02419971     1.35200
V1056       V  0.62294838  0.73109660  0.47608718     1.35200
C1057       C  0.55608898  0.71713202  0.05520586     0.78100
C1058       C  0.70529012  0.76943490  0.94252437     0.78100
C1059       C  0.59217457  0.80783092  0.46943035     0.78000
C1060       C  0.66005739  0.67912929  0.03298256     0.77900
O1061       O  0.78271866  0.93313962  0.09403424    -0.71200
O1062       O  0.69836777  0.51410900  0.08558229    -0.71400
O1063       O  0.80856109  0.01051224  0.05734555    -0.71300
O1064       O  0.69033997  0.95066482  0.12101941    -0.71300
O1065       O  0.74723689  0.51257176  0.18888088    -0.71200
O1066       O  0.82508120  0.51331815  0.07733497    -0.71200
O1067       O  0.75594661  0.55807161  0.11300211    -0.71200
O1068       O  0.81950450  0.96375548  0.14939030    -0.71400
V1069       V  0.75024770  0.98030295  0.08903394     1.35200
V1070       V  0.78477667  0.51156014  0.13241489     1.35200
C1071       C  0.81494182  0.93388239  0.12216697     0.78100
C1072       C  0.71523012  0.55115850  0.09499000     0.78100
C1073       C  0.83297595  0.04089161  0.07654284     0.78000
C1074       C  0.68862426  0.94890318  0.16415209     0.77900
O1075       O  0.52674417  0.90752268  0.31907191    -0.71200
O1076       O  0.96645427  0.90242381  0.20758691    -0.71400
O1077       O  0.44740752  0.93317984  0.28840387    -0.71300
O1078       O  0.54723839  0.87713448  0.23811766    -0.70700
O1079       O  0.00389537  0.81869956  0.26679682    -0.71200
O1080       O  0.89784353  0.87464955  0.30710887    -0.71200
O1081       O  0.92547964  0.84087890  0.22867499    -0.71200
O1082       O  0.47786924  0.85071461  0.34500674    -0.71400
V1083       V  0.49597730  0.90391467  0.26376690     1.35200
V1084       V  0.95195115  0.84727036  0.28649244     1.35200
C1085       C  0.51393777  0.87944539  0.35041922     0.78100
C1086       C  0.93537662  0.87084288  0.19927715     0.78100
C1087       C  0.90495638  0.91402147  0.30352672     0.78000
C1088       C  0.04395545  0.83883327  0.24721492     0.77900
O1089       O  0.64343845  0.98919559  0.42397610    -0.71200
O1090       O  0.76226737  0.56826311  0.40432351    -0.71400
O1091       O  0.67008902  0.53202147  0.38305621    -0.71300
O1092       O  0.77439220  0.49685184  0.44385669    -0.71300
O1093       O  0.76815447  0.00551698  0.42958057    -0.71200
O1094       O  0.71404085  0.98605278  0.31941732    -0.71200
O1095       O  0.80054426  0.54562232  0.34449494    -0.71200
O1096       O  0.69537507  0.94850270  0.40065055    -0.71400
V1097       V  0.72261623  0.51397956  0.41328631     1.35200
V1098       V  0.73959882  0.99674614  0.37517706     1.35200
C1099       C  0.65284484  0.95269319  0.41879637     0.78100
C1100       C  0.79746006  0.57431508  0.37268688     0.78100
C1101       C  0.67331444  0.53061703  0.33994788     0.78000
C1102       C  0.80727802  0.48007440  0.42151038     0.77900
O1103       O  0.84271437  0.70114286  0.47132298    -0.71200
O1104       O  0.83807919  0.78488428  0.04961324    -0.71400
O1105       O  0.82808968  0.77404332  0.96054506    -0.71300
O1106       O  0.85571736  0.70628227  0.05671426    -0.71300
O1107       O  0.93244663  0.72652308  0.53960589    -0.71200
O1108       O  0.90736915  0.80573205  0.45293463    -0.71200
O1109       O  0.91728530  0.80678863  0.03426759    -0.71200
O1110       O  0.92022765  0.72570504  0.45005995    -0.71400
V1111       V  0.84372087  0.74092752  0.00776537     1.35200
V1112       V  0.91832972  0.76551351  0.49709635     1.35200
C1113       C  0.88150079  0.69954423  0.44489451     0.78100
C1114       C  0.87679184  0.81008699  0.05718074     0.78100
C1115       C  0.86151751  0.79669223  0.93448068     0.78000
C1116       C  0.90017308  0.70677224  0.06428739     0.77900
C1117       C  0.88276394  0.06437074  0.00779728     0.24200
C1118       C  0.85969425  0.07673685  0.04825186    -0.23900
C1119       C  0.88021251  0.50953920  0.98771950     0.19100
C1120       C  0.88404289  0.52135875  0.43950117     0.24100
C1121       C  0.80058705  0.06014291  0.47388763    -0.23900
C1122       C  0.84876131  0.04909820  0.46825596     0.19000
F1123       F  0.86171355  0.02367201  0.43504772    -0.13800
F1124       F  0.92563980  0.04865091  0.00831673    -0.16200
F1125       F  0.88472539  0.54973946  0.40524188    -0.16200
F1126       F  0.88813043  0.54901034  0.00285408    -0.13800
C1127       C  0.67784062  0.55656595  0.23611782     0.24200
C1128       C  0.64340445  0.93537149  0.19446835    -0.23900
C1129       C  0.61697173  0.96847961  0.20382391     0.19100
C1130       C  0.62091098  0.98790190  0.24588087     0.24100
C1131       C  0.64427186  0.96968675  0.27962090    -0.23900
C1132       C  0.65749000  0.57062205  0.27716490     0.19000
F1133       F  0.67376470  0.61025797  0.28910080    -0.13800
F1134       F  0.71048829  0.58382318  0.20791805    -0.16200
F1135       F  0.60850999  0.02631672  0.25112366    -0.16200
F1136       F  0.60098867  0.98891206  0.16884274    -0.13800
C1137       C  0.94067881  0.71255809  0.13126158     0.24200
C1138       C  0.91394204  0.68420604  0.10355444    -0.23900
C1139       C  0.93564840  0.64684849  0.58242433     0.19100
C1140       C  0.48699214  0.65585934  0.56966317     0.24100
C1141       C  0.51460062  0.69820442  0.08804934    -0.23900
C1142       C  0.49198624  0.72294202  0.11953589     0.19000
F1143       F  0.51593776  0.76069730  0.13057128    -0.13800
F1144       F  0.91705209  0.74050886  0.15421884    -0.16200
F1145       F  0.50816190  0.63129006  0.53967279    -0.16200
F1146       F  0.90761328  0.61527556  0.56267247    -0.13800
C1147       C  0.82502812  0.80569687  0.37548339     0.24200
C1148       C  0.84567498  0.81624270  0.89410026    -0.23900
C1149       C  0.81670759  0.84653814  0.90701100     0.19100
C1150       C  0.76567076  0.83299188  0.91789503     0.24100
C1151       C  0.74523832  0.79138206  0.90957788    -0.23900
C1152       C  0.77362439  0.79264428  0.38539103     0.19000
F1153       F  0.75098074  0.75777827  0.36641249    -0.13800
F1154       F  0.85108156  0.78258387  0.34767690    -0.16200
F1155       F  0.73860056  0.85744343  0.94291655    -0.16200
F1156       F  0.83843623  0.88272284  0.92399567    -0.13800
C1157       C  0.85160965  0.95329560  0.27003895     0.24200
C1158       C  0.86562513  0.93917350  0.31175386    -0.23900
C1159       C  0.37831223  0.96969493  0.34332485     0.19100
C1160       C  0.43015348  0.50328390  0.31852106     0.24100
C1161       C  0.42717450  0.51621931  0.27280382    -0.23900
C1162       C  0.89242117  0.49239959  0.24766153     0.19000
F1163       F  0.88501234  0.50546323  0.20514153    -0.13800
F1164       F  0.82925594  0.92520811  0.24188023    -0.16200
F1165       F  0.45949992  0.52733835  0.34585044    -0.16200
F1166       F  0.38464482  0.95779665  0.38653754    -0.13800
C1167       C  0.59476449  0.80185137  0.19550712     0.24200
C1168       C  0.08599740  0.81746812  0.23874718    -0.23900
C1169       C  0.09996385  0.79747546  0.27703658     0.19100
C1170       C  0.10578928  0.75591138  0.27444114     0.24100
C1171       C  0.59955634  0.73629059  0.23294155    -0.23900
C1172       C  0.60266553  0.76070542  0.19269172     0.19000
F1173       F  0.60429910  0.74246243  0.15190424    -0.13800
F1174       F  0.58629154  0.82314574  0.15759540    -0.16200
F1175       F  0.10639091  0.73330248  0.31370620    -0.16200
F1176       F  0.09616889  0.81464277  0.31858743    -0.13800
C1177       C  0.93471282  0.64067271  0.84023622     0.80800
N1178       N  0.93254145  0.66754981  0.87499664    -0.77500
C1179       C  0.89056627  0.66417239  0.90488475     0.83300
N1180       N  0.85131624  0.63324531  0.89983220    -0.77400
C1181       C  0.85345435  0.60620674  0.86510954     0.83400
N1182       N  0.89509993  0.61041242  0.83560992    -0.79100
C1183       C  0.87683983  0.84311421  0.60049913     0.80800
N1184       N  0.90536513  0.84335685  0.63624547    -0.77500
C1185       C  0.90456634  0.87325537  0.66794523     0.83300
N1186       N  0.87560392  0.90295816  0.66357679    -0.77400
C1187       C  0.84621712  0.90264630  0.62885999     0.83400
N1188       N  0.84664935  0.87241211  0.59745218    -0.79100
C1189       C  0.61577418  0.91715847  0.92919694     0.80800
N1190       N  0.57857483  0.91690347  0.90181474    -0.77500
C1191       C  0.54589740  0.88159908  0.89624207     0.83300
N1192       N  0.55090759  0.84535479  0.91856147    -0.77400
C1193       C  0.58765723  0.84532095  0.94712737     0.83400
N1194       N  0.62071351  0.88109786  0.95115146    -0.79100
C1195       C  0.71430513  0.60258221  0.59803790     0.80800
N1196       N  0.67693269  0.59567674  0.63275785    -0.77500
C1197       C  0.63962388  0.61844664  0.63518744     0.83300
N1198       N  0.64041344  0.64901215  0.60301659    -0.77400
C1199       C  0.67709606  0.65699244  0.56815993     0.83400
N1200       N  0.71424567  0.63321030  0.56498102    -0.79100
O1201       O  0.61014313  0.60885450  0.71495696    -0.71200
O1202       O  0.01840751  0.63229076  0.81419499    -0.71400
O1203       O  0.53140472  0.56489564  0.76944973    -0.71300
O1204       O  0.59826947  0.67546253  0.76170675    -0.71300
O1205       O  0.05164772  0.69023910  0.70978075    -0.71200
O1206       O  0.97766452  0.58016585  0.72478325    -0.71200
O1207       O  0.97139836  0.65081649  0.76446303    -0.71200
O1208       O  0.55762893  0.62081305  0.66740873    -0.71400
V1209       V  0.56370323  0.62048248  0.76400352     1.35200
V1210       V  0.01571593  0.63513147  0.71732340     1.35200
C1211       C  0.60052683  0.61398442  0.67407941     0.78100
C1212       C  0.97783223  0.64359606  0.80559017     0.78100
C1213       C  0.48990266  0.55526738  0.75379419     0.78000
C1214       C  0.58772592  0.70126392  0.73327762     0.77900
O1215       O  0.58659569  0.74550482  0.56723640    -0.71200
O1216       O  0.70158117  0.79575348  0.49280249    -0.71400
O1217       O  0.62225473  0.80849901  0.00315941    -0.71300
O1218       O  0.67790166  0.72892327  0.55390379    -0.71300
O1219       O  0.65631386  0.68827883  0.49911968    -0.71200
O1220       O  0.58649665  0.77080779  0.95167762    -0.71200
O1221       O  0.67090929  0.74205802  0.93085597    -0.71200
O1222       O  0.55764101  0.70576768  0.01442389    -0.71400
V1223       V  0.64404969  0.76962826  0.52906329     1.35200
V1224       V  0.61466756  0.72458735  0.97393298     1.35200
C1225       C  0.55744418  0.71525188  0.55337269     0.78100
C1226       C  0.70813297  0.78681857  0.45136717     0.78100
C1227       C  0.59765757  0.80626653  0.96875192     0.78000
C1228       C  0.67446734  0.69315474  0.53719741     0.77900
O1229       O  0.78336613  0.93389714  0.59646613    -0.71200
O1230       O  0.73693081  0.53835529  0.57604157    -0.71400
O1231       O  0.80905755  0.00924188  0.55505414    -0.71300
O1232       O  0.69127338  0.95253866  0.62167852    -0.71300
O1233       O  0.76550103  0.51685939  0.68683341    -0.71200
O1234       O  0.86065816  0.53404066  0.58469936    -0.71200
O1235       O  0.78511897  0.57444244  0.62055382    -0.71200
O1236       O  0.81943045  0.96651114  0.65104208    -0.71400
V1237       V  0.75102764  0.98086217  0.58846773     1.35200
V1238       V  0.81128050  0.52440308  0.63462307     1.35200
C1239       C  0.81493195  0.93552709  0.62538317     0.78100
C1240       C  0.74940813  0.57219882  0.59537744     0.78100
C1241       C  0.83441908  0.04020786  0.57236819     0.78000
C1242       C  0.68926229  0.95323498  0.66472728     0.77900
O1243       O  0.52719330  0.90953391  0.82618004    -0.71200
O1244       O  0.96272651  0.90535913  0.71693388    -0.71400
O1245       O  0.44657788  0.93540388  0.79877460    -0.71300
O1246       O  0.54452353  0.87974232  0.74426034    -0.70700
O1247       O  0.00289476  0.82132678  0.77478464    -0.71200
O1248       O  0.89671239  0.87677668  0.81588646    -0.71200
O1249       O  0.92385610  0.84299634  0.73745429    -0.71200
O1250       O  0.47759167  0.85348950  0.85326253    -0.71400
V1251       V  0.49427108  0.90640555  0.77205645     1.35200
V1252       V  0.95091597  0.84964089  0.79503181     1.35200
C1253       C  0.51454515  0.88171352  0.85778295     0.78100
C1254       C  0.93251999  0.87329275  0.70841746     0.78100
C1255       C  0.90397275  0.91616165  0.81310923     0.78000
C1256       C  0.04185476  0.84146837  0.75333166     0.77900
O1257       O  0.64695001  0.98996114  0.92502135    -0.71200
O1258       O  0.77865885  0.56155637  0.89406120    -0.71400
O1259       O  0.68644700  0.52299535  0.87515544    -0.71300
O1260       O  0.79654485  0.49048936  0.92835598    -0.71300
O1261       O  0.77375262  0.00710858  0.93451374    -0.71200
O1262       O  0.71879982  0.98015075  0.82580301    -0.71200
O1263       O  0.81790368  0.54175598  0.83310327    -0.71200
O1264       O  0.70002687  0.94818078  0.90936444    -0.71400
V1265       V  0.74203662  0.50648370  0.90193971     1.35200
V1266       V  0.74491683  0.99460493  0.88074381     1.35200
C1267       C  0.65651397  0.95318621  0.92376415     0.78100
C1268       C  0.81434115  0.56896577  0.86312156     0.78100
C1269       C  0.68829304  0.52345833  0.83198702     0.78000
C1270       C  0.82841120  0.47366281  0.90443992     0.77900
O1271       O  0.84695362  0.69642271  0.96599231    -0.71200
O1272       O  0.83873866  0.78823530  0.55604650    -0.71400
O1273       O  0.82875363  0.78029585  0.46684252    -0.71300
O1274       O  0.85370946  0.70833767  0.56152347    -0.71300
O1275       O  0.93440581  0.72870635  0.03798153    -0.71200
O1276       O  0.90620494  0.79939942  0.94305448    -0.71200
O1277       O  0.91893991  0.80589590  0.54376721    -0.71200
O1278       O  0.92492981  0.72160589  0.94795434    -0.71400
V1279       V  0.84243072  0.74496937  0.51354853     1.35200
V1280       V  0.91922574  0.76368202  0.99134790     1.35200
C1281       C  0.88729035  0.69495963  0.94145697     0.78100
C1282       C  0.87829771  0.81113402  0.56536752     0.78100
C1283       C  0.86325489  0.80497295  0.44382077     0.78000
C1284       C  0.89822809  0.70516120  0.56617664     0.77900
C1285       C  0.88132750  0.06028473  0.50146627     0.24200
C1286       C  0.86050950  0.07473302  0.54185499    -0.23900
C1287       C  0.90331035  0.53427643  0.47990130     0.19100
C1288       C  0.89690432  0.50204321  0.94287465     0.24100
C1289       C  0.80308943  0.06340387  0.97808859    -0.23900
C1290       C  0.85210593  0.05417587  0.97293905     0.19000
F1291       F  0.86768879  0.03140055  0.93825577    -0.13800
F1292       F  0.92339886  0.04332922  0.50158282    -0.16200
F1293       F  0.91872267  0.53498037  0.91490228    -0.16200
F1294       F  0.91821395  0.57553008  0.48568251    -0.13800
C1295       C  0.69065143  0.55710184  0.73199202     0.24200
C1296       C  0.64468189  0.93798717  0.69524629    -0.23900
C1297       C  0.61874847  0.97053825  0.70832102     0.19100
C1298       C  0.62531794  0.98789532  0.75108954     0.24100
C1299       C  0.65137003  0.96833426  0.78168910    -0.23900
C1300       C  0.66832011  0.56652919  0.77434747     0.19000
F1301       F  0.68162559  0.60511351  0.79056251    -0.13800
F1302       F  0.72462728  0.58709491  0.70869960    -0.16200
F1303       F  0.61221763  0.02557987  0.75996895    -0.16200
F1304       F  0.60048836  0.99250063  0.67598332    -0.13800
C1305       C  0.94100266  0.70374888  0.63158180     0.24200
C1306       C  0.91294457  0.67873175  0.60184900    -0.23900
C1307       C  0.93682943  0.65051546  0.08962883     0.19100
C1308       C  0.48845392  0.65848542  0.07934906     0.24100
C1309       C  0.51402866  0.69370156  0.58304873    -0.23900
C1310       C  0.49223608  0.71456031  0.61914263     0.19000
F1311       F  0.51727224  0.74940069  0.63607968    -0.13800
F1312       F  0.91834108  0.72886334  0.65972180    -0.16200
F1313       F  0.51090433  0.63109620  0.05421697    -0.16200
F1314       F  0.90980985  0.61703883  0.07175219    -0.13800
C1315       C  0.82299257  0.78486752  0.86685627     0.24200
C1316       C  0.84970832  0.83107593  0.40722708    -0.23900
C1317       C  0.82400360  0.86158622  0.42580166     0.19100
C1318       C  0.77251296  0.85031040  0.43581536     0.24100
C1319       C  0.74900209  0.81147503  0.42135336    -0.23900
C1320       C  0.77214436  0.76940144  0.87830523     0.19000
F1321       F  0.75259306  0.73058902  0.86604803    -0.13800
F1322       F  0.85150672  0.76027897  0.84381810    -0.16200
F1323       F  0.74791506  0.87318961  0.46523451    -0.16200
F1324       F  0.84858544  0.89327373  0.44837284    -0.13800
C1325       C  0.85037331  0.95342325  0.77763772     0.24200
C1326       C  0.86436825  0.94125844  0.82016734    -0.23900
C1327       C  0.37775691  0.97359678  0.84959260     0.19100
C1328       C  0.46169433  0.50274175  0.81758235     0.24100
C1329       C  0.45602550  0.51767148  0.77321026    -0.23900
C1330       C  0.91887718  0.49558398  0.74912093     0.19000
F1331       F  0.90879213  0.51059575  0.70824723    -0.13800
F1332       F  0.82653893  0.92417677  0.75155941    -0.16200
F1333       F  0.49305495  0.52516766  0.84456377    -0.16200
F1334       F  0.38304356  0.96396726  0.89374370    -0.13800
C1335       C  0.59232704  0.80703096  0.69805768     0.24200
C1336       C  0.08344601  0.82030169  0.74232864    -0.23900
C1337       C  0.10259514  0.80183879  0.77881061     0.19100
C1338       C  0.11861154  0.76378690  0.77295251     0.24100
C1339       C  0.61283193  0.74456297  0.73123179    -0.23900
C1340       C  0.60921183  0.76916814  0.69239338     0.19000
F1341       F  0.61260285  0.75283890  0.65059233    -0.13800
F1342       F  0.57713816  0.82668514  0.66200684    -0.16200
F1343       F  0.12800277  0.74205057  0.81022492    -0.16200
F1344       F  0.09698696  0.81646045  0.82150380    -0.13800
loop_ 
_geom_bond_atom_site_label_1 
_geom_bond_atom_site_label_2 
_geom_bond_distance 
_geom_bond_site_symmetry_2 
_ccdc_geom_bond_type 
C1            N2   1.357       .  A
C1            N6   1.355       .  A
C1           C36   1.462       .  S
N2            C3   1.365       .  A
C3            N4   1.373       .  A
C3          C105   1.494       .  S
N4            C5   1.374       .  A
C5            N6   1.350       .  A
C5           C92   1.483       .  S
C7            N8   1.359       .  A
C7           N12   1.371       .  A
C7          C106   1.492       .  S
N8            C9   1.356       .  A
C9           N10   1.360       .  A
C9           C78   1.469       .  S
N10          C11   1.360       .  A
C11          N12   1.373       .  A
C11          C63   1.496       .  S
C13          N14   1.348       .  A
C13          N18   1.360       .  A
C13          C91   1.476       .  S
N14          C15   1.354       .  A
C15          N16   1.370       .  A
C15          C77   1.477       .  S
N16          C17   1.371       .  A
C17          N18   1.370       .  A
C17          C51   1.495       .  S
C19          N20   1.361       .  A
C19          N24   1.372       .  A
C19          C64   1.480       .  S
N20          C21   1.357       .  A
C21          N22   1.362       .  A
C21          C35   1.478       .  S
N22          C23   1.360       .  A
C23          N24   1.366       .  A
C23          C52   1.496       .  S
O25          V33   1.920       .  S
O25          C35   1.270       .  A
O26         V705   1.916       .  S
O26          C36   1.267       .  A
O27          V33   1.878   1_655  S
O27          C37   1.262       .  A
O28          V33   1.882       .  S
O28          C38   1.257       .  A
O29          V34   1.887       .  S
O29         C710   1.266       .  A
O30          V34   1.905       .  S
O30         C709   1.265       .  A
O31          V34   1.884       .  S
O31          C36   1.260       .  A
O32         V706   1.890   1_455  S
O32          C35   1.261       .  A
V33         O698   1.916   1_455  S
V33         V706   2.089   1_455  T
V34         O704   1.890       .  S
V34         V705   2.089       .  T
C37         C153   1.469       .  S
C37         O702   1.265       .  A
C38         C163   1.455       .  S
C38         O701   1.266       .  A
O39          V47   1.907       .  S
O39          C49   1.264       .  A
O40          V47   1.894   1_556  S
O40          C50   1.268       .  A
O41         V215   1.905       .  S
O41          C51   1.265       .  A
O42          V47   1.909       .  S
O42          C52   1.264       .  A
O43         V216   1.935       .  S
O43          C52   1.273   1_556  A
O44          V48   1.933       .  S
O44          C51   1.272       .  A
O45          V48   1.907       .  S
O45         C218   1.262       .  A
O46          V48   1.892       .  S
O46         C217   1.264       .  A
V47         O209   1.905   1_554  S
V47         V216   2.086   1_554  T
V48         O211   1.933       .  S
V48         V215   2.085       .  T
C49         C133   1.468       .  S
C49         O214   1.261       .  A
C50         C143   1.472       .  S
C50         O213   1.260       .  A
O53          V61   1.911       .  S
O53          C63   1.266       .  A
O54         V397   1.901   1_545  S
O54          C64   1.262       .  A
O55          V61   1.882       .  S
O55          C65   1.265       .  A
O56          V61   1.914       .  S
O56          C66   1.267       .  A
O57          V62   1.857   1_565  S
O57         C402   1.259       .  A
O58          V62   1.881       .  S
O58         C401   1.253       .  A
O59          V62   1.927       .  S
O59          C64   1.273       .  A
O60         V398   1.917       .  S
O60          C63   1.270       .  A
V61         O390   1.900       .  S
V61         V398   2.088       .  T
V62         O396   1.916   1_545  S
V62         V397   2.072   1_545  T
C65         C110   1.445       .  S
C65         O394   1.254       .  A
C66         C120   1.476       .  S
C66         O393   1.261       .  A
O67          V75   1.897       .  S
O67          C77   1.265       .  A
O68         V747   1.912       .  S
O68          C78   1.266       .  A
O69          V75   1.854   1_655  S
O69         C751   1.259       .  A
O70          V75   1.886       .  S
O70         C752   1.254       .  A
O71          V76   1.893       .  S
O71          C80   1.269       .  A
O72          V76   1.916       .  S
O72          C79   1.265       .  A
O73          V76   1.897       .  S
O73          C78   1.263       .  A
O74         V748   1.914       .  S
O74          C77   1.263   1_655  A
V75         O740   1.912   1_455  S
V75         V748   2.088   1_455  T
V76         O746   1.914       .  S
V76         V747   2.088       .  T
C79         C150   1.461       .  S
C79         O741   1.259       .  A
C80         C160   1.458       .  S
C80         O742   1.254       .  A
O81         V425   1.908       .  S
O81          C91   1.263       .  A
O82          V89   1.907       .  S
O82          C92   1.266       .  A
O83          V89   1.928       .  S
O83          C93   1.270   1_545  A
O84          V89   1.904       .  S
O84          C94   1.268       .  A
O85          V90   1.877       .  S
O85         C430   1.252       .  A
O86          V90   1.851       .  S
O86         C429   1.258       .  A
O87         V426   1.907   1_545  S
O87          C92   1.268       .  A
O88          V90   1.913       .  S
O88          C91   1.270       .  A
V89         O417   1.903   1_545  S
V89         V426   2.086   1_545  T
V90         O423   1.914       .  S
V90         V425   2.084       .  T
C93         C459   1.475       .  S
C93         O422   1.257       .  A
C94         C449   1.465       .  S
C94         O421   1.254       .  A
O95         V271   1.931       .  S
O95         C105   1.271       .  A
O96         V103   1.922       .  S
O96         C106   1.266       .  A
O97         V103   1.890   1_556  S
O97         C107   1.268       .  A
O98         V103   1.916       .  S
O98         C108   1.264       .  A
O99         V104   1.875       .  S
O99         C276   1.265       .  A
O100        V104   1.900       .  S
O100        C275   1.258       .  A
O101        V272   1.916   1_554  S
O101        C106   1.270       .  A
O102        V104   1.902       .  S
O102        C105   1.266       .  A
V103        O263   1.931   1_554  S
V103        V272   2.086   1_554  T
V104        O269   1.907       .  S
V104        V271   2.086       .  T
C107        C140   1.475       .  S
C107        O268   1.259       .  A
C108        C130   1.479       .  S
C108        O267   1.264       .  A
C109        C110   1.411   1_556  A
C109        C282   1.389       .  A
C109        F116   1.354   1_556  S
C110        C447   1.406   1_554  A
C111        C446   1.410       .  A
C111        C280   1.402       .  A
C111        F118   1.356       .  S
C112        C279   1.400       .  A
C112        C449   1.402       .  A
C112        F117   1.355       .  S
C113        C430   1.450       .  S
C113        C114   1.398       .  A
C113        C448   1.406       .  A
C114        C277   1.397       .  A
C114        F115   1.356       .  S
C119        C124   1.393       .  A
C119        C456   1.400       .  A
C119        F126   1.358       .  S
C120        C121   1.401       .  A
C120        C455   1.414       .  A
C121        C122   1.411       .  A
C121        F128   1.352       .  S
C122        C123   1.408       .  A
C122        F127   1.355       .  S
C123        C429   1.467       .  S
C123        C460   1.402       .  A
C124        C459   1.412       .  A
C124        F125   1.359       .  S
C129        C130   1.407       .  A
C129        C806   1.406       .  A
C129        F136   1.353       .  S
C130        C299   1.397       .  A
C131        C298   1.399       .  A
C131        C804   1.397       .  A
C131        F138   1.350       .  S
C132        C803   1.397       .  A
C132        C301   1.408   1_655  A
C132        F137   1.358       .  S
C133        C134   1.408   1_455  A
C133        C300   1.410   1_455  A
C134        C801   1.406       .  A
C134        F135   1.354   1_655  S
C139        C144   1.409       .  A
C139        C308   1.411       .  A
C139        F146   1.356       .  S
C140        C141   1.397       .  A
C140        C307   1.411       .  A
C141        C142   1.396       .  A
C141        F148   1.355       .  S
C142        C143   1.404       .  A
C142        F147   1.343       .  S
C143        C312   1.398       .  A
C144        C311   1.404       .  A
C144        F145   1.356       .  S
C149        C150   1.408       .  A
C149        C490   1.408       .  A
C149        F156   1.354       .  S
C150        C823   1.398       .  A
C151        C822   1.398       .  A
C151        C488   1.398       .  A
C151        F158   1.357       .  S
C152        C153   1.410       .  A
C152        C487   1.398   1_545  A
C152        F157   1.358       .  S
C153        C826   1.399   1_545  A
C154        C485   1.406       .  A
C154        C825   1.399   1_565  A
C154        F155   1.353   1_565  S
C159        C164   1.393       .  A
C159        C832   1.394       .  A
C159        F166   1.355       .  S
C160        C161   1.406       .  A
C160        C831   1.394       .  A
C161        C162   1.394       .  A
C161        F168   1.356       .  S
C162        C835   1.401       .  A
C162        F167   1.358       .  S
C163        C164   1.401       .  A
C163        C834   1.401       .  A
C164        F165   1.353       .  S
C169        N170   1.360       .  A
C169        N174   1.356       .  A
C169        C204   1.462       .  S
N170        C171   1.367       .  A
C171        N172   1.372       .  A
C171        C273   1.498       .  S
N172        C173   1.373       .  A
C173        N174   1.349       .  A
C173        C260   1.486       .  S
C175        N176   1.355       .  A
C175        N180   1.370       .  A
C175        C274   1.482       .  S
N176        C177   1.351       .  A
C177        N178   1.364       .  A
C177        C246   1.469       .  S
N178        C179   1.364       .  A
C179        N180   1.375       .  A
C179        C231   1.499       .  S
C181        N182   1.344       .  A
C181        N186   1.366       .  A
C181        C259   1.475       .  S
N182        C183   1.350       .  A
C183        N184   1.366       .  A
C183        C245   1.469       .  S
N184        C185   1.369       .  A
C185        N186   1.375       .  A
C185        C219   1.496       .  S
C187        N188   1.358       .  A
C187        N192   1.374       .  A
C187        C232   1.478       .  S
N188        C189   1.352       .  A
C189        N190   1.362       .  A
C189        C203   1.475       .  S
N190        C191   1.362       .  A
C191        N192   1.370       .  A
C191        C220   1.498       .  S
O193        V201   1.916       .  S
O193        C203   1.269       .  A
O194        V873   1.916       .  S
O194        C204   1.267       .  A
O195        V201   1.881   1_655  S
O195        C205   1.262       .  A
O196        V201   1.885       .  S
O196        C206   1.258       .  A
O197        V202   1.882       .  S
O197        C878   1.265       .  A
O198        V202   1.904       .  S
O198        C877   1.264       .  A
O199        V202   1.884       .  S
O199        C204   1.260       .  A
O200        V874   1.890   1_455  S
O200        C203   1.261       .  A
V201        O866   1.916   1_455  S
V201        V874   2.089   1_455  T
V202        O872   1.890       .  S
V202        V873   2.089       .  T
C205        C321   1.469       .  S
C205        O870   1.264       .  A
C206        C331   1.453       .  S
C206        O869   1.265       .  A
O207        V215   1.891       .  S
O207        C217   1.259       .  A
O208        V215   1.883       .  S
O208        C218   1.264       .  A
O209        C219   1.264       .  A
O210        V215   1.914       .  S
O210        C220   1.266       .  A
O211        C220   1.272       .  A
O212        V216   1.933       .  S
O212        C219   1.274       .  A
O213        V216   1.903       .  S
O214        V216   1.880   1_554  S
C217        C301   1.466       .  S
C218        C311   1.469       .  S
O221        V229   1.908       .  S
O221        C231   1.265       .  A
O222        V565   1.908   1_545  S
O222        C232   1.263       .  A
O223        V229   1.891       .  S
O223        C233   1.271       .  A
O224        V229   1.923       .  S
O224        C234   1.269       .  A
O225        V230   1.861   1_565  S
O225        C570   1.260       .  A
O226        V230   1.883       .  S
O226        C569   1.254       .  A
O227        V230   1.919       .  S
O227        C232   1.271       .  A
O228        V566   1.930       .  S
O228        C231   1.273       .  A
V229        O558   1.901       .  S
V229        V566   2.084       .  T
V230        O564   1.914   1_545  S
V230        V565   2.076   1_545  T
C233        C278   1.468       .  S
C233        O562   1.255       .  A
C234        C288   1.478       .  S
C234        O561   1.260       .  A
O235        V243   1.890       .  S
O235        C245   1.265       .  A
O236        V915   1.910       .  S
O236        C246   1.265       .  A
O237        V243   1.848   1_655  S
O237        C919   1.258       .  A
O238        V243   1.883       .  S
O238        C920   1.254       .  A
O239        V244   1.894       .  S
O239        C248   1.270       .  A
O240        V244   1.913       .  S
O240        C247   1.264       .  A
O241        V244   1.896       .  S
O241        C246   1.264       .  A
O242        V916   1.910   1_455  S
O242        C245   1.262       .  A
V243        O908   1.910   1_455  S
V243        V916   2.086   1_455  T
V244        O914   1.910       .  S
V244        V915   2.086       .  T
C247        C318   1.454       .  S
C247        O909   1.258       .  A
C248        C328   1.458       .  S
C248        O910   1.254       .  A
O249        V593   1.900       .  S
O249        C259   1.259       .  A
O250        V257   1.907       .  S
O250        C260   1.266       .  A
O251        V257   1.921       .  S
O251        C261   1.269   1_545  A
O252        V257   1.900       .  S
O252        C262   1.266       .  A
O253        V258   1.874       .  S
O253        C598   1.250       .  A
O254        V258   1.851       .  S
O254        C597   1.259       .  A
O255        V594   1.908   1_545  S
O255        C260   1.268       .  A
O256        V258   1.921       .  S
O256        C259   1.274       .  A
V257        O585   1.905   1_545  S
V257        V594   2.088   1_545  T
V258        O591   1.923       .  S
V258        V593   2.081       .  T
C261        C627   1.475       .  S
C261        O590   1.259       .  A
C262        C617   1.464       .  S
C262        O589   1.255       .  A
O263        C273   1.271       .  A
O264        V271   1.919       .  S
O264        C274   1.266       .  A
O265        V271   1.877       .  S
O265        C275   1.267       .  A
O266        V271   1.913       .  S
O266        C276   1.263       .  A
O267        V272   1.874   1_554  S
O268        V272   1.900       .  S
O269        C274   1.268       .  A
O270        V272   1.910       .  S
O270        C273   1.267       .  A
C275        C308   1.472       .  S
C276        C298   1.481       .  S
C277        C278   1.406       .  A
C277        F284   1.349       .  S
C278        C615   1.394       .  A
C279        C614   1.411       .  A
C279        F286   1.355       .  S
C280        C617   1.403   1_554  A
C280        F285   1.354       .  S
C281        C598   1.459       .  S
C281        C616   1.405       .  A
C281        C282   1.391       .  A
C282        F283   1.354       .  S
C287        C624   1.399       .  A
C287        C292   1.394       .  A
C287        F294   1.358       .  S
C288        C623   1.415       .  A
C288        C289   1.404       .  A
C289        C290   1.414       .  A
C289        F296   1.355       .  S
C290        C291   1.409       .  A
C290        F295   1.354       .  S
C291        C597   1.468       .  S
C291        C628   1.397       .  A
C292        C627   1.413       .  A
C292        F293   1.359       .  S
C297        C298   1.408       .  A
C297        C974   1.408       .  A
C297        F304   1.355       .  S
C299        C972   1.397       .  A
C299        F306   1.350       .  S
C300        C971   1.397       .  A
C300        F305   1.358       .  S
C301        C302   1.412   1_455  A
C302        C969   1.408       .  A
C302        F303   1.356   1_655  S
C307        C312   1.410       .  A
C307        F314   1.353       .  S
C308        C309   1.395       .  A
C309        C310   1.398       .  A
C309        F316   1.356       .  S
C310        C311   1.414       .  A
C310        F315   1.351       .  S
C312        F313   1.353       .  S
C317        C318   1.407       .  A
C317        C658   1.406       .  A
C317        F324   1.355       .  S
C318        C991   1.399       .  A
C319        C990   1.399       .  A
C319        C656   1.396       .  A
C319        F326   1.358       .  S
C320        C655   1.400   1_545  A
C320        C321   1.411       .  A
C320        F325   1.358       .  S
C321        C994   1.399   1_545  A
C322        C653   1.407       .  A
C322        C993   1.399   1_565  A
C322        F323   1.353       .  S
C327       C1000   1.391       .  A
C327        C332   1.393       .  A
C327        F334   1.354       .  S
C328        C999   1.391       .  A
C328        C329   1.407       .  A
C329        C330   1.395       .  A
C329        F336   1.356       .  S
C330       C1003   1.400       .  A
C330        F335   1.358       .  S
C331       C1002   1.399       .  A
C331        C332   1.403       .  A
C332        F333   1.354       .  S
C337        N338   1.364       .  A
C337        N342   1.357       .  A
C337        C372   1.475       .  S
N338        C339   1.369       .  A
C339        N340   1.369       .  A
C339        C441   1.490       .  S
N340        C341   1.365       .  A
C341        N342   1.356       .  A
C341        C428   1.487       .  S
C343        N344   1.367       .  A
C343        N348   1.367       .  A
C343        C442   1.488       .  S
N344        C345   1.363       .  A
C345        N346   1.355       .  A
C345        C414   1.473       .  S
N346        C347   1.355       .  A
C347        N348   1.367       .  A
C347        C399   1.481       .  S
C349        N350   1.352       .  A
C349        N354   1.355       .  A
C349        C427   1.470       .  S
N350        C351   1.356       .  A
C351        N352   1.370       .  A
C351        C413   1.482       .  S
N352        C353   1.371       .  A
C353        N354   1.366       .  A
C353        C387   1.483       .  S
C355        N356   1.363       .  A
C355        N360   1.370       .  A
C355        C400   1.471       .  S
N356        C357   1.353       .  A
C357        N358   1.359       .  A
C357        C371   1.485       .  S
N358        C359   1.364       .  A
C359        N360   1.368       .  A
C359        C388   1.486       .  S
O361        V369   1.925       .  S
O361        C371   1.271       .  A
O362       V1041   1.928       .  S
O362        C372   1.271       .  A
O363        V369   1.871       .  S
O363        C373   1.259   1_455  A
O364        V369   1.876       .  S
O364        C374   1.255       .  A
O365        V370   1.894       .  S
O365       C1046   1.268       .  A
O366        V370   1.916       .  S
O366       C1045   1.268       .  A
O367        V370   1.894       .  S
O367        C372   1.261       .  A
O368       V1042   1.899   1_455  S
O368        C371   1.262       .  A
V369       O1034   1.928   1_455  S
V369       V1042   2.086   1_455  T
V370       O1040   1.899       .  S
V370       V1041   2.086       .  T
C373        C489   1.475       .  S
C373       O1038   1.268       .  A
C374        C499   1.455       .  S
C374       O1037   1.268       .  A
O375        V383   1.892       .  S
O375        C385   1.260       .  A
O376        V383   1.886   1_556  S
O376        C386   1.265       .  A
O377        V551   1.895       .  S
O377        C387   1.263       .  A
O378        V383   1.904       .  S
O378        C388   1.264       .  A
O379        V552   1.924       .  S
O379        C388   1.270   1_556  A
O380        V384   1.927       .  S
O380        C387   1.270       .  A
O381        V384   1.900       .  S
O381        C554   1.263       .  A
O382        V384   1.895       .  S
O382        C553   1.265       .  A
V383        O545   1.897       .  S
V383        V552   2.087   1_554  T
V384        O547   1.928       .  S
V384        V551   2.086       .  T
C385        C469   1.465       .  S
C385        O550   1.263       .  A
C386        C479   1.471       .  S
C386        O549   1.263       .  A
O389        V397   1.903       .  S
O389        C399   1.262       .  A
O390        C400   1.263       .  A
O391        V397   1.886   1_545  S
O391        C401   1.272       .  A
O392        V397   1.914       .  S
O392        C402   1.266       .  A
O393        V398   1.877       .  S
O394        V398   1.871       .  S
O395        V398   1.915       .  S
O395        C400   1.267       .  A
O396        C399   1.271       .  A
C401        C446   1.466       .  S
C402        C456   1.458       .  S
O403        V411   1.897   1_455  S
O403        C413   1.267       .  A
O404       V1083   1.905       .  S
O404        C414   1.265       .  A
O405        V411   1.863       .  S
O405       C1087   1.261       .  A
O406        V411   1.881   1_455  S
O406       C1088   1.254       .  A
O407        V412   1.879       .  S
O407        C416   1.263       .  A
O408        V412   1.911       .  S
O408        C415   1.263       .  A
O409        V412   1.912       .  S
O409        C414   1.266       .  A
O410       V1084   1.921       .  S
O410        C413   1.267   1_655  A
V411       O1076   1.905       .  S
V411       V1084   2.087       .  T
V412       O1082   1.921       .  S
V412       V1083   2.087       .  T
C415        C486   1.462       .  S
C415       O1077   1.261       .  A
C416        C496   1.445       .  S
C416       O1078   1.254       .  A
O417        C427   1.264       .  A
O418        V425   1.913       .  S
O418        C428   1.265       .  A
O419        V425   1.921       .  S
O419        C429   1.266       .  A
O420        V425   1.897       .  S
O420        C430   1.269       .  A
O421        V426   1.853   1_545  S
O422        V426   1.860       .  S
O423        C428   1.270       .  A
O424        V426   1.909       .  S
O424        C427   1.266       .  A
O431        V607   1.912       .  S
O431        C441   1.267       .  A
O432        V439   1.924       .  S
O432        C442   1.269       .  A
O433        V439   1.861   1_556  S
O433        C443   1.262       .  A
O434        V439   1.893       .  S
O434        C444   1.255       .  A
O435        V440   1.870       .  S
O435        C612   1.265       .  A
O436        V440   1.900       .  S
O436        C611   1.258       .  A
O437        V608   1.912   1_554  S
O437        C442   1.266       .  A
O438        V440   1.920       .  S
O438        C441   1.269       .  A
V439        O599   1.928   1_554  S
V439        V608   2.087   1_554  T
V440        O605   1.921       .  S
V440        V607   2.085       .  T
C443        C476   1.468       .  S
C443        O604   1.262       .  A
C444        C466   1.465       .  S
C444        O603   1.269       .  A
C445        C446   1.395       .  A
C445        C618   1.396   1_554  A
C445        F452   1.357       .  S
C447        C616   1.397       .  A
C447        F454   1.358   1_556  S
C448        C615   1.390       .  A
C448        F453   1.348       .  S
C449        C450   1.420       .  A
C450        C613   1.397       .  A
C450        F451   1.354       .  S
C455        C460   1.402       .  A
C455        F462   1.358       .  S
C456        C457   1.411       .  A
C457        C458   1.407       .  A
C457        F464   1.356       .  S
C458        C459   1.400       .  A
C458        F463   1.355   1_565  S
C460        F461   1.357       .  S
C465        C466   1.404       .  A
C465       C1142   1.400       .  A
C465        F472   1.357       .  S
C466        C635   1.400       .  A
C467        C634   1.400       .  A
C467       C1140   1.402       .  A
C467        F474   1.353       .  S
C468       C1139   1.402       .  A
C468        C637   1.411   1_655  A
C468        F473   1.358   1_655  S
C469        C636   1.411   1_455  A
C469        C470   1.408   1_455  A
C470       C1137   1.400       .  A
C470        F471   1.354   1_655  S
C475        C644   1.406       .  A
C475        C480   1.404       .  A
C475        F482   1.357       .  S
C476        C643   1.410       .  A
C476        C477   1.401       .  A
C477        C478   1.400       .  A
C477        F484   1.356       .  S
C478        C479   1.412       .  A
C478        F483   1.358       .  S
C479        C648   1.407       .  A
C480        C647   1.409       .  A
C480        F481   1.357       .  S
C485        C486   1.408       .  A
C485        F492   1.356       .  S
C486       C1159   1.400       .  A
C487       C1158   1.400       .  A
C487        F494   1.355       .  S
C488        C489   1.414       .  A
C488        F493   1.358       .  S
C489       C1162   1.403       .  A
C490       C1161   1.403       .  A
C490        F491   1.356       .  S
C495       C1168   1.396       .  A
C495        C500   1.392       .  A
C495        F502   1.357       .  S
C496       C1167   1.396       .  A
C496        C497   1.402       .  A
C497        C498   1.389       .  A
C497        F504   1.358       .  S
C498       C1171   1.402       .  A
C498        F503   1.358       .  S
C499       C1170   1.402       .  A
C499        C500   1.399       .  A
C500        F501   1.352       .  S
C505        N506   1.364       .  A
C505        N510   1.358       .  A
C505        C540   1.478       .  S
N506        C507   1.370       .  A
C507        N508   1.367       .  A
C507        C609   1.493       .  S
N508        C509   1.367       .  A
C509        N510   1.355       .  A
C509        C596   1.485       .  S
C511        N512   1.366       .  A
C511        N516   1.366       .  A
C511        C610   1.486       .  S
N512        C513   1.364       .  A
C513        N514   1.357       .  A
C513        C582   1.474       .  S
N514        C515   1.356       .  A
C515        N516   1.365       .  A
C515        C567   1.483       .  S
C517        N518   1.355       .  A
C517        N522   1.357       .  A
C517        C595   1.474       .  S
N518        C519   1.357       .  A
C519        N520   1.368       .  A
C519        C581   1.482       .  S
N520        C521   1.369       .  A
C521        N522   1.366       .  A
C521        C555   1.483       .  S
C523        N524   1.366       .  A
C523        N528   1.376       .  A
C523        C568   1.486       .  S
N524        C525   1.354       .  A
C525        N526   1.353       .  A
C525        C539   1.482       .  S
N526        C527   1.358       .  A
C527        N528   1.373       .  A
C527        C556   1.486       .  S
O529        V537   1.922       .  S
O529        C539   1.268       .  A
O530       V1209   1.928       .  S
O530        C540   1.271       .  A
O531        V537   1.873       .  S
O531        C541   1.260   1_455  A
O532        V537   1.876       .  S
O532        C542   1.256       .  A
O533        V538   1.894       .  S
O533       C1214   1.268       .  A
O534        V538   1.912       .  S
O534       C1213   1.267       .  A
O535        V538   1.894       .  S
O535        C540   1.261       .  A
O536       V1210   1.896       .  S
O536        C539   1.263       .  A
V537       O1202   1.928       .  S
V537       V1210   2.086       .  T
V538       O1208   1.896       .  S
V538       V1209   2.086       .  T
C541        C657   1.476       .  S
C541       O1206   1.267       .  A
C542        C667   1.459       .  S
C542       O1205   1.268       .  A
O543        V551   1.894       .  S
O543        C553   1.261       .  A
O544        V551   1.886       .  S
O544        C554   1.264       .  A
O545        C555   1.264   1_554  A
O546        V551   1.904       .  S
O546        C556   1.265       .  A
O547        C556   1.270       .  A
O548        V552   1.926       .  S
O548        C555   1.270       .  A
O549        V552   1.905       .  S
O550        V552   1.884   1_554  S
C553        C637   1.475       .  S
C554        C647   1.473       .  S
O557        V565   1.906       .  S
O557        C567   1.263       .  A
O558        C568   1.261       .  A
O559        V565   1.881   1_545  S
O559        C569   1.270       .  A
O560        V565   1.912       .  S
O560        C570   1.264       .  A
O561        V566   1.878       .  S
O562        V566   1.888       .  S
O563        V566   1.933       .  S
O563        C568   1.274       .  A
O564        C567   1.269       .  A
C569        C614   1.466       .  S
C570        C624   1.458       .  S
O571        V579   1.897   1_455  S
O571        C581   1.266       .  A
O572       V1251   1.905       .  S
O572        C582   1.265       .  A
O573        V579   1.861       .  S
O573       C1255   1.261       .  A
O574        V579   1.880   1_455  S
O574       C1256   1.255       .  A
O575        V580   1.879       .  S
O575        C584   1.263       .  A
O576        V580   1.910       .  S
O576        C583   1.262       .  A
O577        V580   1.913       .  S
O577        C582   1.266       .  A
O578       V1252   1.922       .  S
O578        C581   1.268   1_655  A
V579       O1244   1.905       .  S
V579       V1252   2.085       .  T
V580       O1250   1.922       .  S
V580       V1251   2.085       .  T
C583        C654   1.464       .  S
C583       O1245   1.261       .  A
C584        C664   1.441       .  S
C584       O1246   1.255       .  A
O585        C595   1.265       .  A
O586        V593   1.901       .  S
O586        C596   1.262       .  A
O587        V593   1.922       .  S
O587        C597   1.267       .  A
O588        V593   1.885       .  S
O588        C598   1.272       .  A
O589        V594   1.856   1_545  S
O590        V594   1.866       .  S
O591        C596   1.273       .  A
O592        V594   1.908       .  S
O592        C595   1.265       .  A
O599        C609   1.272       .  A
O600        V607   1.912       .  S
O600        C610   1.266       .  A
O601        V607   1.874       .  S
O601        C611   1.267       .  A
O602        V607   1.905       .  S
O602        C612   1.260       .  A
O603        V608   1.881   1_554  S
O604        V608   1.910       .  S
O605        C610   1.269       .  A
O606        V608   1.908       .  S
O606        C609   1.265       .  A
C611        C644   1.467       .  S
C612        C634   1.467       .  S
C613        C614   1.396       .  A
C613        F620   1.357       .  S
C615        F622   1.355       .  S
C616        F621   1.357       .  S
C617        C618   1.419       .  A
C618        F619   1.353       .  S
C623        C628   1.401       .  A
C623        F630   1.357       .  S
C624        C625   1.410       .  A
C625        C626   1.406       .  A
C625        F632   1.356       .  S
C626        C627   1.402       .  A
C626        F631   1.356   1_565  S
C628        F629   1.357       .  S
C633        C634   1.403       .  A
C633       C1310   1.402       .  A
C633        F640   1.357       .  S
C635       C1308   1.398       .  A
C635        F642   1.357       .  S
C636       C1307   1.398       .  A
C636        F641   1.358   1_655  S
C637        C638   1.412   1_455  A
C638       C1305   1.402       .  A
C638        F639   1.354   1_655  S
C643        C648   1.408       .  A
C643        F650   1.357       .  S
C644        C645   1.401       .  A
C645        C646   1.400       .  A
C645        F652   1.357       .  S
C646        C647   1.413       .  A
C646        F651   1.358       .  S
C648        F649   1.357       .  S
C653        C654   1.409       .  A
C653        F660   1.356       .  S
C654       C1327   1.400       .  A
C655       C1326   1.400       .  A
C655        F662   1.356       .  S
C656        C657   1.414       .  A
C656        F661   1.358       .  S
C657       C1330   1.405       .  A
C658       C1329   1.405       .  A
C658        F659   1.356       .  S
C663       C1336   1.397       .  A
C663        C668   1.392       .  A
C663        F670   1.358       .  S
C664       C1335   1.397       .  A
C664        C665   1.402       .  A
C665        C666   1.388       .  A
C665        F672   1.358       .  S
C666       C1339   1.401       .  A
C666        F671   1.358       .  S
C667       C1338   1.401       .  A
C667        C668   1.400       .  A
C668        F669   1.353       .  S
C673        N674   1.357       .  A
C673        N678   1.355       .  A
C673        C708   1.462       .  S
N674        C675   1.365       .  A
C675        N676   1.373       .  A
C675        C777   1.494       .  S
N676        C677   1.374       .  A
C677        N678   1.350       .  A
C677        C764   1.483       .  S
C679        N680   1.359       .  A
C679        N684   1.371       .  A
C679        C778   1.492       .  S
N680        C681   1.356       .  A
C681        N682   1.360       .  A
C681        C750   1.469       .  S
N682        C683   1.360       .  A
C683        N684   1.373       .  A
C683        C735   1.496       .  S
C685        N686   1.348       .  A
C685        N690   1.360       .  A
C685        C763   1.476       .  S
N686        C687   1.354       .  A
C687        N688   1.370       .  A
C687        C749   1.477       .  S
N688        C689   1.371       .  A
C689        N690   1.370       .  A
C689        C723   1.495       .  S
C691        N692   1.361       .  A
C691        N696   1.372       .  A
C691        C736   1.480       .  S
N692        C693   1.357       .  A
C693        N694   1.362       .  A
C693        C707   1.478       .  S
N694        C695   1.360       .  A
C695        N696   1.366       .  A
C695        C724   1.496       .  S
O697        V705   1.920       .  S
O697        C707   1.270       .  A
O698        C708   1.267       .  A
O699        V705   1.878       .  S
O699        C709   1.262       .  A
O700        V705   1.883       .  S
O700        C710   1.257       .  A
O701        V706   1.887   1_455  S
O702        V706   1.905       .  S
O703        V706   1.884       .  S
O703        C708   1.260       .  A
O704        C707   1.261       .  A
C709        C825   1.469       .  S
C710        C835   1.455       .  S
O711        V719   1.907       .  S
O711        C721   1.264       .  A
O712        V719   1.894   1_556  S
O712        C722   1.268       .  A
O713        V887   1.905       .  S
O713        C723   1.265       .  A
O714        V719   1.909       .  S
O714        C724   1.264       .  A
O715        V888   1.935       .  S
O715        C724   1.273   1_556  A
O716        V720   1.933       .  S
O716        C723   1.272       .  A
O717        V720   1.907       .  S
O717        C890   1.262       .  A
O718        V720   1.892       .  S
O718        C889   1.264       .  A
V719        O881   1.905   1_554  S
V719        V888   2.086   1_554  T
V720        O883   1.933       .  S
V720        V887   2.085       .  T
C721        C805   1.468       .  S
C721        O886   1.261       .  A
C722        C815   1.472       .  S
C722        O885   1.260       .  A
O725        V733   1.911       .  S
O725        C735   1.266       .  A
O726       V1069   1.901   1_545  S
O726        C736   1.262       .  A
O727        V733   1.882       .  S
O727        C737   1.265       .  A
O728        V733   1.914       .  S
O728        C738   1.267       .  A
O729        V734   1.857   1_565  S
O729       C1074   1.259       .  A
O730        V734   1.881       .  S
O730       C1073   1.253       .  A
O731        V734   1.927       .  S
O731        C736   1.273       .  A
O732       V1070   1.918       .  S
O732        C735   1.270       .  A
V733       O1062   1.900       .  S
V733       V1070   2.088       .  T
V734       O1068   1.916   1_545  S
V734       V1069   2.072   1_545  T
C737        C782   1.445       .  S
C737       O1066   1.254       .  A
C738        C792   1.476       .  S
C738       O1065   1.261       .  A
O739        V747   1.897       .  S
O739        C749   1.265       .  A
O740        C750   1.266       .  A
O741        V747   1.854       .  S
O742        V747   1.886       .  S
O743        V748   1.893   1_455  S
O743        C752   1.269       .  A
O744        V748   1.916       .  S
O744        C751   1.265       .  A
O745        V748   1.897       .  S
O745        C750   1.263       .  A
O746        C749   1.263       .  A
C751        C822   1.461       .  S
C752        C832   1.458       .  S
O753       V1097   1.908       .  S
O753        C763   1.263       .  A
O754        V761   1.907       .  S
O754        C764   1.266       .  A
O755        V761   1.928       .  S
O755        C765   1.270   1_545  A
O756        V761   1.904       .  S
O756        C766   1.268       .  A
O757        V762   1.877       .  S
O757       C1102   1.252       .  A
O758        V762   1.851       .  S
O758       C1101   1.258       .  A
O759       V1098   1.907   1_545  S
O759        C764   1.268       .  A
O760        V762   1.913       .  S
O760        C763   1.270       .  A
V761       O1089   1.903   1_545  S
V761       V1098   2.086   1_545  T
V762       O1095   1.914       .  S
V762       V1097   2.084       .  T
C765       C1131   1.475       .  S
C765       O1094   1.257       .  A
C766       C1121   1.465       .  S
C766       O1093   1.254       .  A
O767        V943   1.931       .  S
O767        C777   1.271       .  A
O768        V775   1.922       .  S
O768        C778   1.266       .  A
O769        V775   1.890   1_556  S
O769        C779   1.268       .  A
O770        V775   1.916       .  S
O770        C780   1.264       .  A
O771        V776   1.875       .  S
O771        C948   1.265       .  A
O772        V776   1.900       .  S
O772        C947   1.258       .  A
O773        V944   1.916   1_554  S
O773        C778   1.270       .  A
O774        V776   1.902       .  S
O774        C777   1.266       .  A
V775        O935   1.931   1_554  S
V775        V944   2.086   1_554  T
V776        O941   1.907       .  S
V776        V943   2.086       .  T
C779        C812   1.475       .  S
C779        O940   1.259       .  A
C780        C802   1.479       .  S
C780        O939   1.264       .  A
C781        C782   1.411   1_556  A
C781        C954   1.389       .  A
C781        F788   1.354   1_556  S
C782       C1119   1.406   1_554  A
C783       C1118   1.410       .  A
C783        C952   1.402       .  A
C783        F790   1.356       .  S
C784        C951   1.400       .  A
C784       C1121   1.402       .  A
C784        F789   1.355       .  S
C785       C1102   1.450       .  S
C785       C1120   1.406       .  A
C785        C786   1.398       .  A
C786        C949   1.397       .  A
C786        F787   1.356       .  S
C791       C1128   1.400       .  A
C791        C796   1.393       .  A
C791        F798   1.358       .  S
C792       C1127   1.414       .  A
C792        C793   1.401       .  A
C793        C794   1.411       .  A
C793        F800   1.352       .  S
C794        C795   1.408       .  A
C794        F799   1.355       .  S
C795       C1101   1.467       .  S
C795       C1132   1.402       .  A
C796       C1131   1.412       .  A
C796        F797   1.359       .  S
C801        C802   1.407       .  A
C801        F808   1.353       .  S
C802        C971   1.397       .  A
C803        C970   1.399       .  A
C803        F810   1.350       .  S
C804        C973   1.408       .  A
C804        F809   1.358       .  S
C805        C972   1.410       .  A
C805        C806   1.408       .  A
C806        F807   1.354       .  S
C811        C980   1.411       .  A
C811        C816   1.409       .  A
C811        F818   1.356       .  S
C812        C979   1.411       .  A
C812        C813   1.397       .  A
C813        C814   1.396       .  A
C813        F820   1.355       .  S
C814        C815   1.404       .  A
C814        F819   1.343       .  S
C815        C984   1.398       .  A
C816        C983   1.404       .  A
C816        F817   1.356       .  S
C821        C822   1.408       .  A
C821       C1162   1.408       .  A
C821        F828   1.354       .  S
C823       C1160   1.398       .  A
C823        F830   1.357       .  S
C824       C1159   1.398   1_545  A
C824        C825   1.410       .  A
C824        F829   1.358       .  S
C826       C1157   1.406       .  A
C826        F827   1.353   1_565  S
C831        C836   1.393       .  A
C831        F838   1.355       .  S
C832        C833   1.406       .  A
C833        C834   1.394       .  A
C833        F840   1.356       .  S
C834        F839   1.358       .  S
C835        C836   1.401       .  A
C836        F837   1.353       .  S
C841        N842   1.360       .  A
C841        N846   1.356       .  A
C841        C876   1.462       .  S
N842        C843   1.367       .  A
C843        N844   1.372       .  A
C843        C945   1.498       .  S
N844        C845   1.373       .  A
C845        N846   1.349       .  A
C845        C932   1.486       .  S
C847        N848   1.355       .  A
C847        N852   1.370       .  A
C847        C946   1.482       .  S
N848        C849   1.351       .  A
C849        N850   1.364       .  A
C849        C918   1.469       .  S
N850        C851   1.364       .  A
C851        N852   1.375       .  A
C851        C903   1.499       .  S
C853        N854   1.344       .  A
C853        N858   1.366       .  A
C853        C931   1.476       .  S
N854        C855   1.350       .  A
C855        N856   1.366       .  A
C855        C917   1.469       .  S
N856        C857   1.369       .  A
C857        N858   1.375       .  A
C857        C891   1.496       .  S
C859        N860   1.358       .  A
C859        N864   1.374       .  A
C859        C904   1.478       .  S
N860        C861   1.352       .  A
C861        N862   1.362       .  A
C861        C875   1.475       .  S
N862        C863   1.362       .  A
C863        N864   1.370       .  A
C863        C892   1.498       .  S
O865        V873   1.916       .  S
O865        C875   1.269       .  A
O866        C876   1.267       .  A
O867        V873   1.881       .  S
O867        C877   1.262       .  A
O868        V873   1.885       .  S
O868        C878   1.258       .  A
O869        V874   1.882   1_455  S
O870        V874   1.904       .  S
O871        V874   1.884       .  S
O871        C876   1.260       .  A
O872        C875   1.261       .  A
C877        C993   1.469       .  S
C878       C1003   1.453       .  S
O879        V887   1.891       .  S
O879        C889   1.259       .  A
O880        V887   1.883       .  S
O880        C890   1.264       .  A
O881        C891   1.264       .  A
O882        V887   1.914       .  S
O882        C892   1.266       .  A
O883        C892   1.272       .  A
O884        V888   1.933       .  S
O884        C891   1.274       .  A
O885        V888   1.903       .  S
O886        V888   1.880   1_554  S
C889        C973   1.466       .  S
C890        C983   1.469       .  S
O893        V901   1.908       .  S
O893        C903   1.265       .  A
O894       V1237   1.908   1_545  S
O894        C904   1.263       .  A
O895        V901   1.891       .  S
O895        C905   1.271       .  A
O896        V901   1.923       .  S
O896        C906   1.269       .  A
O897        V902   1.861   1_565  S
O897       C1242   1.260       .  A
O898        V902   1.883       .  S
O898       C1241   1.254       .  A
O899        V902   1.919       .  S
O899        C904   1.271       .  A
O900       V1238   1.930       .  S
O900        C903   1.273       .  A
V901       O1230   1.901       .  S
V901       V1238   2.084       .  T
V902       O1236   1.914   1_545  S
V902       V1237   2.076   1_545  T
C905        C950   1.468       .  S
C905       O1234   1.255       .  A
C906        C960   1.478       .  S
C906       O1233   1.260       .  A
O907        V915   1.890       .  S
O907        C917   1.265       .  A
O908        C918   1.265       .  A
O909        V915   1.848       .  S
O910        V915   1.883       .  S
O911        V916   1.894   1_455  S
O911        C920   1.270       .  A
O912        V916   1.913       .  S
O912        C919   1.264       .  A
O913        V916   1.896       .  S
O913        C918   1.264       .  A
O914        C917   1.262       .  A
C919        C990   1.454       .  S
C920       C1000   1.458       .  S
O921       V1265   1.900       .  S
O921        C931   1.259       .  A
O922        V929   1.907       .  S
O922        C932   1.266       .  A
O923        V929   1.921       .  S
O923        C933   1.269   1_545  A
O924        V929   1.900       .  S
O924        C934   1.266       .  A
O925        V930   1.874       .  S
O925       C1270   1.250       .  A
O926        V930   1.851       .  S
O926       C1269   1.259       .  A
O927       V1266   1.908   1_545  S
O927        C932   1.268       .  A
O928        V930   1.921       .  S
O928        C931   1.274       .  A
V929       O1257   1.905   1_545  S
V929       V1266   2.088   1_545  T
V930       O1263   1.923       .  S
V930       V1265   2.081       .  T
C933       C1299   1.475       .  S
C933       O1262   1.259       .  A
C934       C1289   1.464       .  S
C934       O1261   1.255       .  A
O935        C945   1.271       .  A
O936        V943   1.919       .  S
O936        C946   1.266       .  A
O937        V943   1.877       .  S
O937        C947   1.267       .  A
O938        V943   1.913       .  S
O938        C948   1.263       .  A
O939        V944   1.874   1_554  S
O940        V944   1.900       .  S
O941        C946   1.268       .  A
O942        V944   1.910       .  S
O942        C945   1.267       .  A
C947        C980   1.472       .  S
C948        C970   1.481       .  S
C949        C950   1.406       .  A
C949        F956   1.349       .  S
C950       C1287   1.394       .  A
C951       C1286   1.411       .  A
C951        F958   1.355       .  S
C952       C1289   1.403   1_554  A
C952        F957   1.354       .  S
C953       C1270   1.459       .  S
C953       C1288   1.405       .  A
C953        C954   1.391       .  A
C954        F955   1.354       .  S
C959       C1296   1.399       .  A
C959        C964   1.394       .  A
C959        F966   1.358       .  S
C960       C1295   1.415       .  A
C960        C961   1.404       .  A
C961        C962   1.414       .  A
C961        F968   1.355       .  S
C962        C963   1.409       .  A
C962        F967   1.354       .  S
C963       C1269   1.468       .  S
C963       C1300   1.397       .  A
C964       C1299   1.413       .  A
C964        F965   1.359       .  S
C969        C970   1.408       .  A
C969        F976   1.355       .  S
C971        F978   1.350       .  S
C972        F977   1.358       .  S
C973        C974   1.412       .  A
C974        F975   1.356       .  S
C979        C984   1.410       .  A
C979        F986   1.353       .  S
C980        C981   1.395       .  A
C981        C982   1.398       .  A
C981        F988   1.356       .  S
C982        C983   1.414       .  A
C982        F987   1.351       .  S
C984        F985   1.353       .  S
C989        C990   1.407       .  A
C989       C1330   1.406       .  A
C989        F996   1.355       .  S
C991       C1328   1.396       .  A
C991        F998   1.358       .  S
C992       C1327   1.400   1_545  A
C992        C993   1.411       .  A
C992        F997   1.358       .  S
C994       C1325   1.407       .  A
C994        F995   1.353       .  S
C999       C1004   1.393       .  A
C999       F1006   1.354       .  S
C1000      C1001   1.407       .  A
C1001      C1002   1.395       .  A
C1001      F1008   1.356       .  S
C1002      F1007   1.358       .  S
C1003      C1004   1.403       .  A
C1004      F1005   1.354       .  S
C1009      N1010   1.364       .  A
C1009      N1014   1.357       .  A
C1009      C1044   1.475       .  S
N1010      C1011   1.369       .  A
C1011      N1012   1.369       .  A
C1011      C1113   1.490       .  S
N1012      C1013   1.365       .  A
C1013      N1014   1.356       .  A
C1013      C1100   1.487       .  S
C1015      N1016   1.367       .  A
C1015      N1020   1.367       .  A
C1015      C1114   1.488       .  S
N1016      C1017   1.363       .  A
C1017      N1018   1.355       .  A
C1017      C1086   1.473       .  S
N1018      C1019   1.355       .  A
C1019      N1020   1.367       .  A
C1019      C1071   1.481       .  S
C1021      N1022   1.352       .  A
C1021      N1026   1.355       .  A
C1021      C1099   1.470       .  S
N1022      C1023   1.356       .  A
C1023      N1024   1.370       .  A
C1023      C1085   1.482       .  S
N1024      C1025   1.371       .  A
C1025      N1026   1.366       .  A
C1025      C1059   1.483       .  S
C1027      N1028   1.363       .  A
C1027      N1032   1.370       .  A
C1027      C1072   1.471       .  S
N1028      C1029   1.353       .  A
C1029      N1030   1.359       .  A
C1029      C1043   1.485       .  S
N1030      C1031   1.364       .  A
C1031      N1032   1.368       .  A
C1031      C1060   1.486       .  S
O1033      V1041   1.925       .  S
O1033      C1043   1.271       .  A
O1034      C1044   1.271       .  A
O1035      V1041   1.871       .  S
O1035      C1045   1.260       .  A
O1036      V1041   1.876       .  S
O1036      C1046   1.255       .  A
O1037      V1042   1.894   1_455  S
O1038      V1042   1.916       .  S
O1039      V1042   1.894       .  S
O1039      C1044   1.261       .  A
O1040      C1043   1.262       .  A
C1045      C1161   1.475       .  S
C1046      C1171   1.455       .  S
O1047      V1055   1.892       .  S
O1047      C1057   1.260       .  A
O1048      V1055   1.886   1_556  S
O1048      C1058   1.265       .  A
O1049      V1223   1.895       .  S
O1049      C1059   1.263       .  A
O1050      V1055   1.904       .  S
O1050      C1060   1.264       .  A
O1051      V1224   1.924       .  S
O1051      C1060   1.270   1_556  A
O1052      V1056   1.927       .  S
O1052      C1059   1.270       .  A
O1053      V1056   1.900       .  S
O1053      C1226   1.263       .  A
O1054      V1056   1.895       .  S
O1054      C1225   1.265       .  A
V1055      O1217   1.897       .  S
V1055      V1224   2.087   1_554  T
V1056      O1219   1.928       .  S
V1056      V1223   2.086       .  T
C1057      C1141   1.465       .  S
C1057      O1222   1.263       .  A
C1058      C1151   1.472       .  S
C1058      O1221   1.263       .  A
O1061      V1069   1.903       .  S
O1061      C1071   1.262       .  A
O1062      C1072   1.263       .  A
O1063      V1069   1.886   1_545  S
O1063      C1073   1.272       .  A
O1064      V1069   1.914       .  S
O1064      C1074   1.266       .  A
O1065      V1070   1.877       .  S
O1066      V1070   1.871       .  S
O1067      V1070   1.916       .  S
O1067      C1072   1.267       .  A
O1068      C1071   1.271       .  A
C1073      C1118   1.467       .  S
C1074      C1128   1.458       .  S
O1075      V1083   1.897       .  S
O1075      C1085   1.267       .  A
O1076      C1086   1.265       .  A
O1077      V1083   1.863       .  S
O1078      V1083   1.881       .  S
O1079      V1084   1.879   1_455  S
O1079      C1088   1.263       .  A
O1080      V1084   1.911       .  S
O1080      C1087   1.263       .  A
O1081      V1084   1.912       .  S
O1081      C1086   1.266       .  A
O1082      C1085   1.267       .  A
C1087      C1158   1.462       .  S
C1088      C1168   1.445       .  S
O1089      C1099   1.264       .  A
O1090      V1097   1.913       .  S
O1090      C1100   1.265       .  A
O1091      V1097   1.921       .  S
O1091      C1101   1.266       .  A
O1092      V1097   1.897       .  S
O1092      C1102   1.269       .  A
O1093      V1098   1.853   1_545  S
O1094      V1098   1.860       .  S
O1095      C1100   1.270       .  A
O1096      V1098   1.909       .  S
O1096      C1099   1.266       .  A
O1103      V1279   1.912       .  S
O1103      C1113   1.267       .  A
O1104      V1111   1.924       .  S
O1104      C1114   1.269       .  A
O1105      V1111   1.861   1_556  S
O1105      C1115   1.262       .  A
O1106      V1111   1.893       .  S
O1106      C1116   1.255       .  A
O1107      V1112   1.870       .  S
O1107      C1284   1.265       .  A
O1108      V1112   1.900       .  S
O1108      C1283   1.258       .  A
O1109      V1280   1.912   1_554  S
O1109      C1114   1.266       .  A
O1110      V1112   1.920       .  S
O1110      C1113   1.269       .  A
V1111      O1271   1.928   1_554  S
V1111      V1280   2.087   1_554  T
V1112      O1277   1.921       .  S
V1112      V1279   2.085       .  T
C1115      C1148   1.468       .  S
C1115      O1276   1.262       .  A
C1116      C1138   1.465       .  S
C1116      O1275   1.269       .  A
C1117      C1118   1.395       .  A
C1117      C1290   1.396   1_554  A
C1117      F1124   1.357       .  S
C1119      C1288   1.397       .  A
C1119      F1126   1.358   1_556  S
C1120      C1287   1.390       .  A
C1120      F1125   1.348       .  S
C1121      C1122   1.420       .  A
C1122      C1285   1.397       .  A
C1122      F1123   1.354       .  S
C1127      C1132   1.402       .  A
C1127      F1134   1.358       .  S
C1128      C1129   1.411       .  A
C1129      C1130   1.407       .  A
C1129      F1136   1.356       .  S
C1130      C1131   1.400       .  A
C1130      F1135   1.355   1_565  S
C1132      F1133   1.357       .  S
C1137      C1138   1.404       .  A
C1137      F1144   1.357       .  S
C1138      C1307   1.400       .  A
C1139      C1306   1.400       .  A
C1139      F1146   1.353       .  S
C1140      C1309   1.411       .  A
C1140      F1145   1.358       .  S
C1141      C1308   1.411       .  A
C1141      C1142   1.408       .  A
C1142      F1143   1.354       .  S
C1147      C1316   1.406       .  A
C1147      C1152   1.404       .  A
C1147      F1154   1.357       .  S
C1148      C1315   1.410       .  A
C1148      C1149   1.401       .  A
C1149      C1150   1.400       .  A
C1149      F1156   1.356       .  S
C1150      C1151   1.412       .  A
C1150      F1155   1.358       .  S
C1151      C1320   1.407       .  A
C1152      C1319   1.409       .  A
C1152      F1153   1.357       .  S
C1157      C1158   1.408       .  A
C1157      F1164   1.356       .  S
C1159      F1166   1.355       .  S
C1160      C1161   1.414       .  A
C1160      F1165   1.358       .  S
C1162      F1163   1.356       .  S
C1167      C1172   1.392       .  A
C1167      F1174   1.357       .  S
C1168      C1169   1.402       .  A
C1169      C1170   1.389       .  A
C1169      F1176   1.358       .  S
C1170      F1175   1.358       .  S
C1171      C1172   1.399       .  A
C1172      F1173   1.352       .  S
C1177      N1178   1.364       .  A
C1177      N1182   1.358       .  A
C1177      C1212   1.478       .  S
N1178      C1179   1.370       .  A
C1179      N1180   1.367       .  A
C1179      C1281   1.493       .  S
N1180      C1181   1.367       .  A
C1181      N1182   1.355       .  A
C1181      C1268   1.485       .  S
C1183      N1184   1.366       .  A
C1183      N1188   1.366       .  A
C1183      C1282   1.485       .  S
N1184      C1185   1.364       .  A
C1185      N1186   1.357       .  A
C1185      C1254   1.474       .  S
N1186      C1187   1.356       .  A
C1187      N1188   1.365       .  A
C1187      C1239   1.483       .  S
C1189      N1190   1.355       .  A
C1189      N1194   1.357       .  A
C1189      C1267   1.474       .  S
N1190      C1191   1.357       .  A
C1191      N1192   1.368       .  A
C1191      C1253   1.482       .  S
N1192      C1193   1.369       .  A
C1193      N1194   1.366       .  A
C1193      C1227   1.483       .  S
C1195      N1196   1.366       .  A
C1195      N1200   1.376       .  A
C1195      C1240   1.486       .  S
N1196      C1197   1.354       .  A
C1197      N1198   1.353       .  A
C1197      C1211   1.482       .  S
N1198      C1199   1.358       .  A
C1199      N1200   1.373       .  A
C1199      C1228   1.486       .  S
O1201      V1209   1.922       .  S
O1201      C1211   1.268       .  A
O1202      C1212   1.271   1_455  A
O1203      V1209   1.873       .  S
O1203      C1213   1.260       .  A
O1204      V1209   1.876       .  S
O1204      C1214   1.256       .  A
O1205      V1210   1.894       .  S
O1206      V1210   1.912   1_655  S
O1207      V1210   1.894   1_655  S
O1207      C1212   1.261       .  A
O1208      C1211   1.263       .  A
C1213      C1329   1.476       .  S
C1214      C1339   1.459       .  S
O1215      V1223   1.894       .  S
O1215      C1225   1.261       .  A
O1216      V1223   1.886       .  S
O1216      C1226   1.264       .  A
O1217      C1227   1.264   1_554  A
O1218      V1223   1.904       .  S
O1218      C1228   1.265       .  A
O1219      C1228   1.270       .  A
O1220      V1224   1.926       .  S
O1220      C1227   1.270       .  A
O1221      V1224   1.905       .  S
O1222      V1224   1.884   1_554  S
C1225      C1309   1.475       .  S
C1226      C1319   1.473       .  S
O1229      V1237   1.907       .  S
O1229      C1239   1.263       .  A
O1230      C1240   1.261       .  A
O1231      V1237   1.881   1_545  S
O1231      C1241   1.270       .  A
O1232      V1237   1.912       .  S
O1232      C1242   1.264       .  A
O1233      V1238   1.878       .  S
O1234      V1238   1.888       .  S
O1235      V1238   1.933       .  S
O1235      C1240   1.274       .  A
O1236      C1239   1.269       .  A
C1241      C1286   1.466       .  S
C1242      C1296   1.458       .  S
O1243      V1251   1.898       .  S
O1243      C1253   1.266       .  A
O1244      C1254   1.265       .  A
O1245      V1251   1.861       .  S
O1246      V1251   1.880       .  S
O1247      V1252   1.879   1_455  S
O1247      C1256   1.263       .  A
O1248      V1252   1.910       .  S
O1248      C1255   1.262       .  A
O1249      V1252   1.913       .  S
O1249      C1254   1.266       .  A
O1250      C1253   1.268       .  A
C1255      C1326   1.464       .  S
C1256      C1336   1.441       .  S
O1257      C1267   1.265       .  A
O1258      V1265   1.901       .  S
O1258      C1268   1.262       .  A
O1259      V1265   1.922       .  S
O1259      C1269   1.267       .  A
O1260      V1265   1.885       .  S
O1260      C1270   1.272       .  A
O1261      V1266   1.856   1_545  S
O1262      V1266   1.866       .  S
O1263      C1268   1.273       .  A
O1264      V1266   1.908       .  S
O1264      C1267   1.265       .  A
O1271      C1281   1.272       .  A
O1272      V1279   1.912       .  S
O1272      C1282   1.266       .  A
O1273      V1279   1.874       .  S
O1273      C1283   1.267       .  A
O1274      V1279   1.905       .  S
O1274      C1284   1.260       .  A
O1275      V1280   1.881   1_554  S
O1276      V1280   1.910       .  S
O1277      C1282   1.269       .  A
O1278      V1280   1.908       .  S
O1278      C1281   1.265       .  A
C1283      C1316   1.467       .  S
C1284      C1306   1.467       .  S
C1285      C1286   1.396       .  A
C1285      F1292   1.357       .  S
C1287      F1294   1.355       .  S
C1288      F1293   1.357       .  S
C1289      C1290   1.419       .  A
C1290      F1291   1.353       .  S
C1295      C1300   1.401       .  A
C1295      F1302   1.357       .  S
C1296      C1297   1.410       .  A
C1297      C1298   1.406       .  A
C1297      F1304   1.356       .  S
C1298      C1299   1.402       .  A
C1298      F1303   1.356   1_565  S
C1300      F1301   1.357       .  S
C1305      C1306   1.403       .  A
C1305      F1312   1.357       .  S
C1307      F1314   1.357       .  S
C1308      F1313   1.358       .  S
C1309      C1310   1.412       .  A
C1310      F1311   1.354       .  S
C1315      C1320   1.408       .  A
C1315      F1322   1.357       .  S
C1316      C1317   1.401       .  A
C1317      C1318   1.400       .  A
C1317      F1324   1.357       .  S
C1318      C1319   1.413       .  A
C1318      F1323   1.358       .  S
C1320      F1321   1.357       .  S
C1325      C1326   1.409       .  A
C1325      F1332   1.356       .  S
C1327      F1334   1.356       .  S
C1328      C1329   1.414       .  A
C1328      F1333   1.358       .  S
C1330      F1331   1.356       .  S
C1335      C1340   1.392       .  A
C1335      F1342   1.358       .  S
C1336      C1337   1.402       .  A
C1337      C1338   1.388       .  A
C1337      F1344   1.358       .  S
C1338      F1343   1.358       .  S
C1339      C1340   1.400       .  A
C1340      F1341   1.353       .  S
