geometry optimzed in LAMMPS
_audit_creation_date              2020-11-30 
_audit_creation_method            'lammps2cif' 
_symmetry_space_group_name_H-M    'P1' 
_symmetry_Int_Tables_number       1 
_symmetry_cell_setting            triclinic 
loop_ 
_symmetry_equiv_pos_as_xyz 
  x,y,z 
_cell_length_a                    26.09640265 
_cell_length_b                    43.00160453340734 
_cell_length_c                    42.12860815615184 
_cell_angle_alpha                 90.45155521980473 
_cell_angle_beta                  89.96976777186269 
_cell_angle_gamma                 90.24699827751273 
loop_ 
_atom_site_label 
_atom_site_type_symbol 
_atom_site_fract_x 
_atom_site_fract_y 
_atom_site_fract_z 
_atom_site_charge 
O1          O  0.65073991  0.33092770  0.28612507    -0.82300
C2          C  0.73590491  0.31887358  0.16325574     0.97100
O3          O  0.76197515  0.31672711  0.18825575    -0.71400
O4          O  0.72886892  0.36731827  0.21597931    -0.75000
Al5        Al  0.73785804  0.32656346  0.23024950     1.49000
C6          C  0.69769711  0.38701022  0.22690726     0.92400
O7          O  0.58944138  0.35029501  0.20618100    -0.81200
O8          O  0.61894832  0.26382918  0.22597021    -0.74700
Al9        Al  0.62284013  0.33841303  0.24455038     1.90100
O10         O  0.59585639  0.30603354  0.18079462    -0.73800
O11         O  0.71427129  0.26215777  0.20521354    -0.73700
O12         O  0.68991854  0.30990451  0.16306455    -0.79300
O13         O  0.75242225  0.28623140  0.24508781    -0.77500
O14         O  0.67189807  0.31735627  0.22415756    -1.13700
O15         O  0.73045941  0.33960643  0.27272469    -0.72800
C16         C  0.69572939  0.33936673  0.29343365     0.97900
C17         C  0.57912241  0.33330525  0.18258524     0.94300
Al18       Al  0.65623486  0.28781524  0.19609104     1.55600
O19         O  0.65796738  0.37841006  0.24202481    -0.77500
C20         C  0.74428625  0.26202137  0.22876126     0.98400
C21         C  0.58272964  0.27301310  0.24365192     0.93300
O22         O  0.57832571  0.30186448  0.25039271    -0.82800
O23         O  0.35476582  0.32439095  0.98696474    -0.82300
C24         C  0.27571116  0.32811461  0.11324377     0.97100
O25         O  0.24938826  0.32531282  0.08836296    -0.71400
O26         O  0.28216820  0.37059052  0.05203761    -0.75000
Al27       Al  0.27148802  0.32792428  0.04489896     1.49000
C28         C  0.31307547  0.38790652  0.03721425     0.92400
O29         O  0.42409411  0.35342127  0.06101770    -0.81200
O30         O  0.39153926  0.26614322  0.05502349    -0.74700
Al31       Al  0.38594445  0.33703999  0.02617850     1.90100
O32         O  0.41477420  0.31471493  0.09399028    -0.73800
O33         O  0.29627074  0.26665268  0.07716175    -0.73700
O34         O  0.32160762  0.31917507  0.11328627    -0.79300
O35         O  0.25487509  0.28576994  0.03643563    -0.77500
O36         O  0.33768978  0.31945104  0.05078737    -1.13700
O37         O  0.27571955  0.33364525  0.00105828    -0.72800
C38         C  0.30614092  0.33080736  0.48192614     0.97900
C39         C  0.43603339  0.33971176  0.08614813     0.94300
Al40       Al  0.35447008  0.29383554  0.08214858     1.55600
O41         O  0.35302083  0.37705553  0.02424936    -0.77500
C42         C  0.26363531  0.26370273  0.05514984     0.98400
C43         C  0.42528139  0.27279853  0.03453242     0.93300
O44         O  0.42821647  0.30014132  0.02350353    -0.82800
O45         O  0.15128917  0.38154456  0.23882466    -0.82300
C46         C  0.22822600  0.38057630  0.36513029     0.97100
O47         O  0.25536222  0.38469110  0.34076709    -0.71400
O48         O  0.22542601  0.33900883  0.30411609    -0.75000
Al49       Al  0.23413442  0.38140039  0.29710994     1.49000
C50         C  0.19409727  0.32075245  0.29076708     0.92400
O51         O  0.07998541  0.35551418  0.31351478    -0.81200
O52         O  0.11464214  0.44232226  0.30709093    -0.74700
Al53       Al  0.11974676  0.37062731  0.27858529     1.90100
O54         O  0.08890692  0.39515797  0.34573329    -0.73800
O55         O  0.20835177  0.44170463  0.33047554    -0.73700
O56         O  0.18216642  0.38932214  0.36518275    -0.79300
O57         O  0.24896873  0.42357694  0.28887013    -0.77500
O58         O  0.16755040  0.38902374  0.30300925    -1.13700
O59         O  0.23068627  0.37501240  0.25313534    -0.72800
C60         C  0.19761601  0.37681812  0.23168036     0.97900
C61         C  0.06681323  0.37036726  0.33798002     0.94300
Al62       Al  0.15018342  0.41489765  0.33444027     1.55600
O63         O  0.15309639  0.33051619  0.27819503    -0.77500
C64         C  0.23980253  0.44548657  0.30801685     0.98400
C65         C  0.08175539  0.43556169  0.28602799     0.93300
O66         O  0.07838595  0.40798605  0.27498177    -0.82800
O67         O  0.85633633  0.37740602  0.03909779    -0.82300
C68         C  0.76103729  0.39145568  0.41394117     0.97100
O69         O  0.73581679  0.38847878  0.43918724    -0.71400
O70         O  0.77605398  0.33975392  0.46494574    -0.75000
Al71       Al  0.76094445  0.37939099  0.48085928     1.49000
C72         C  0.80860177  0.32134958  0.47622258     0.92400
O73         O  0.91112476  0.36278254  0.45687219    -0.81200
O74         O  0.87541610  0.44744357  0.47983256    -0.74700
Al75       Al  0.87672607  0.37262121  0.49563894     1.90100
O76         O  0.89912156  0.40661889  0.43195276    -0.73800
O77         O  0.77912005  0.44662950  0.46114874    -0.73700
O78         O  0.80529499  0.40303200  0.41497752    -0.79300
O79         O  0.73999872  0.41831691  0.49729444    -0.77500
O80         O  0.82562985  0.39212750  0.47568088    -1.13700
O81         O  0.77586975  0.36874043  0.02675147    -0.72800
C82         C  0.81092976  0.37070461  0.04716950     0.97900
C83         C  0.91904824  0.38006564  0.43334628     0.94300
Al84       Al  0.83838794  0.42337018  0.44931008     1.55600
O85         O  0.84633695  0.33148780  0.49225001    -0.77500
C86         C  0.74727754  0.44388799  0.48357695     0.98400
C87         C  0.91279683  0.43871233  0.49654402     0.93300
O88         O  0.91830879  0.40998796  0.50254527    -0.82800
O89         O  0.08863757  0.05062924  0.01714637    -0.82300
C90         C  0.24615084  0.07793486  0.10650033     0.97100
O91         O  0.21675306  0.05452637  0.10698931    -0.71400
O92         O  0.12273288  0.07307466  0.10600035    -0.75000
Al93       Al  0.15816495  0.04385809  0.08125850     1.49000
C94         C  0.08319815  0.08737443  0.09766893     0.92400
O95         O  0.14113824  0.12961034  0.04473154    -0.81200
O96         O  0.22350164  0.06986057  0.99604967    -0.74700
Al97       Al  0.11769317  0.08952530  0.03160051     1.90100
O98         O  0.22246606  0.12293684  0.03242967    -0.73800
O99         O  0.26050738  0.03771212  0.04396294    -0.73700
O100        O  0.25367318  0.09210168  0.08095950    -0.79300
O101        O  0.19226242  0.01244897  0.06005393    -0.77500
O102        O  0.17030823  0.07091164  0.05052399    -1.13700
O103        O  0.09630445  0.02635828  0.06253387    -0.72800
C104        C  0.07666856  0.02810681  0.03505607     0.97900
C105        C  0.18554217  0.14039698  0.03996374     0.94300
Al106      Al  0.23471004  0.07974584  0.03932649     1.55600
O107        O  0.07316318  0.09053631  0.06846659    -0.77500
C108        C  0.23648284  0.01246550  0.04837798     0.98400
C109        C  0.19467468  0.08223664  0.47710550     0.93300
O110        O  0.15067449  0.09421940  0.99041428    -0.82800
O111        O  0.91695731  0.05067863  0.26874486    -0.82300
C112        C  0.77024384  0.08165793  0.17448030     0.97100
O113        O  0.80110587  0.05917594  0.17317900    -0.71400
O114        O  0.89317180  0.07830273  0.18113112    -0.75000
Al115      Al  0.85533322  0.04670441  0.20079347     1.49000
C116        C  0.93157633  0.09173086  0.19271843     0.92400
O117        O  0.86270734  0.12979100  0.24556415    -0.81200
O118        O  0.77858481  0.06454441  0.28519180    -0.74700
Al119      Al  0.88726188  0.08945670  0.25633724     1.90100
O120        O  0.78118148  0.11980036  0.25408297    -0.73800
O121        O  0.74873038  0.03610370  0.23195131    -0.73700
O122        O  0.75710591  0.09282407  0.20095174    -0.79300
O123        O  0.81847930  0.01250239  0.21581024    -0.77500
O124        O  0.83803247  0.07088243  0.23337755    -1.13700
O125        O  0.91454303  0.02883420  0.22140595    -0.72800
C126        C  0.93187963  0.02970655  0.24954893     0.97900
C127        C  0.81712173  0.13897955  0.24943136     0.94300
Al128      Al  0.77197454  0.07751726  0.24230161     1.55600
O129        O  0.93679282  0.09381379  0.22245851    -0.77500
C130        C  0.77206230  0.01163661  0.22376015     0.98400
C131        C  0.80736614  0.07851310  0.30482736     0.93300
O132        O  0.84942705  0.09017568  0.29575844    -0.82800
O133        O  0.42019479  0.15676403  0.26685781    -0.82300
C134        C  0.26140624  0.13205867  0.35596901     0.97100
O135        O  0.29189845  0.15492714  0.35674805    -0.71400
O136        O  0.38515962  0.13728113  0.35553691    -0.75000
Al137      Al  0.34937059  0.16582808  0.33065595     1.49000
C138        C  0.42411323  0.12226186  0.34744265     0.92400
O139        O  0.36564337  0.07922124  0.29478729    -0.81200
O140        O  0.28552826  0.13807735  0.24445918    -0.74700
Al141      Al  0.39004775  0.11862548  0.28162136     1.90100
O142        O  0.28428995  0.08634010  0.28261716    -0.73800
O143        O  0.24749872  0.17171571  0.29192829    -0.73700
O144        O  0.25125608  0.11884419  0.32998495    -0.79300
O145        O  0.31452815  0.19724446  0.30979065    -0.77500
O146        O  0.33714976  0.13820275  0.30000337    -1.13700
O147        O  0.41067772  0.18299214  0.31141517    -0.72800
C148        C  0.43138115  0.18001337  0.28430883     0.97900
C149        C  0.32073366  0.06891001  0.29083201     0.94300
Al150      Al  0.27257851  0.12968197  0.28820635     1.55600
O151        O  0.43412663  0.11818553  0.31836805    -0.77500
C152        C  0.27074722  0.19700619  0.29745926     0.98400
C153        C  0.31762636  0.12285089  0.22829442     0.93300
O154        O  0.35816659  0.11294255  0.24091834    -0.82800
O155        O  0.59199329  0.15873352  0.01788573    -0.82300
C156        C  0.73385331  0.12623308  0.42546169     0.97100
O157        O  0.70251185  0.14847599  0.42439803    -0.71400
O158        O  0.61032410  0.13129063  0.43309950    -0.75000
Al159      Al  0.64952054  0.16208429  0.45274338     1.49000
C160        C  0.57206411  0.11765293  0.44430433     0.92400
O161        O  0.64058991  0.07864518  0.49725045    -0.81200
O162        O  0.72861963  0.14424472  0.03559192    -0.74700
Al163      Al  0.61675691  0.11959882  0.50789530     1.90100
O164        O  0.72241749  0.08853141  0.50467864    -0.73800
O165        O  0.75688151  0.17191787  0.48377918    -0.73700
O166        O  0.74723414  0.11532899  0.45183159    -0.79300
O167        O  0.68776380  0.19580900  0.46764098    -0.77500
O168        O  0.66642532  0.13773378  0.48490993    -1.13700
O169        O  0.59158585  0.18093705  0.47404106    -0.72800
C170        C  0.57374685  0.18005069  0.50204438     0.97900
C171        C  0.68608130  0.06930361  0.50131783     0.94300
Al172      Al  0.73251951  0.13067677  0.49351424     1.55600
O173        O  0.56681094  0.11522236  0.47398736    -0.77500
C174        C  0.73412591  0.19642778  0.47556457     0.98400
C175        C  0.69937744  0.13057305  0.05491932     0.93300
O176        O  0.65739455  0.11901041  0.04556911    -0.82800
C177        C  0.54640667  0.10225095  0.38990859    -0.21800
C178        C  0.53207746  0.10774512  0.42164428    -0.09800
C179        C  0.47996725  0.11106891  0.42904001     0.29100
C180        C  0.44399089  0.11302632  0.40455576    -0.21800
C181        C  0.45952883  0.11174136  0.37251029    -0.09800
C182        C  0.51066887  0.10441120  0.36545135     0.29100
F183        F  0.52736357  0.10238469  0.33498443    -0.20300
H184        H  0.58626159  0.09891634  0.38377747     0.17400
H185        H  0.40454479  0.11784770  0.41068300     0.17400
F186        F  0.46447569  0.11592635  0.45943587    -0.20300
C187        C  0.73788139  0.09728374  0.34008179    -0.21800
C188        C  0.78805353  0.08600944  0.33713299    -0.09800
C189        C  0.82049621  0.08736831  0.36382616     0.29100
C190        C  0.80258254  0.09963279  0.39287165    -0.21800
C191        C  0.75301473  0.11224274  0.39526923    -0.09800
C192        C  0.72086456  0.11081986  0.36844807     0.29100
F193        F  0.67288010  0.12278288  0.36947140    -0.20300
H194        H  0.71255756  0.09731198  0.31968752     0.17400
H195        H  0.82805455  0.10032344  0.41316155     0.17400
F196        F  0.86958651  0.07728263  0.36166806    -0.20300
C197        C  0.76639096  0.10816442  0.08889820    -0.21800
C198        C  0.71850425  0.12265838  0.08687896    -0.09800
C199        C  0.68741478  0.12418528  0.11413885     0.29100
C200        C  0.70441323  0.11133840  0.14289995    -0.21800
C201        C  0.75162995  0.09565477  0.14446034    -0.09800
C202        C  0.78256521  0.09446022  0.11706675     0.29100
F203        F  0.82878133  0.08010194  0.11741108    -0.20300
H204        H  0.79046096  0.10603701  0.06800919     0.17400
H205        H  0.68011817  0.11290551  0.16370512     0.17400
F206        F  0.64074166  0.13791737  0.11286943    -0.20300
C207        C  0.30091047  0.13201505  0.17028183    -0.21800
C208        C  0.30401551  0.11182393  0.19613925    -0.09800
C209        C  0.29156004  0.08024791  0.19177680     0.29100
C210        C  0.27430288  0.06924577  0.16236944    -0.21800
C211        C  0.27014524  0.08933779  0.13642043    -0.09800
C212        C  0.28488976  0.12081120  0.14043864     0.29100
F213        F  0.28172543  0.14107363  0.11598615    -0.20300
H214        H  0.31047137  0.15638171  0.17326112     0.17400
H215        H  0.26335885  0.04502452  0.16005123     0.17400
F216        F  0.29398224  0.06020025  0.21644864    -0.20300
C217        C  0.17742682  0.09252851  0.41878933    -0.21800
C218        C  0.21109721  0.09233559  0.44491457    -0.09800
C219        C  0.26004103  0.10575106  0.44131547     0.29100
C220        C  0.27458141  0.11935156  0.41269370    -0.21800
C221        C  0.24166948  0.11924659  0.38638373    -0.09800
C222        C  0.19301659  0.10513458  0.38944747     0.29100
F223        F  0.16023249  0.10423932  0.36445910    -0.20300
H224        H  0.13923307  0.08283977  0.42109284     0.17400
H225        H  0.31237545  0.12969919  0.41097528     0.17400
F226        F  0.29330482  0.10711887  0.46605329    -0.20300
C227        C  0.06090031  0.09466729  0.15481313    -0.21800
C228        C  0.04714302  0.09790712  0.12267102    -0.09800
C229        C  0.99696673  0.10719323  0.11530285     0.29100
C230        C  0.95989470  0.10860679  0.13922145    -0.21800
C231        C  0.97249357  0.10140181  0.17076460    -0.09800
C232        C  0.02399869  0.09654236  0.17874367     0.29100
F233        F  0.03774240  0.08993481  0.20902022    -0.20300
H234        H  0.09965498  0.08839155  0.16134979     0.17400
H235        H  0.92043119  0.11304482  0.13270999     0.17400
F236        F  0.98258352  0.11233039  0.08484332    -0.20300
C237        C  0.67641784  0.48173965  0.47917864    -0.21800
C238        C  0.72116155  0.47186279  0.49438726    -0.09800
C239        C  0.74738227  0.49204878  0.51493924     0.29100
C240        C  0.74907785  0.02754066  0.51138481    -0.21800
C241        C  0.69930127  0.03582700  0.50185754    -0.09800
C242        C  0.66585367  0.01234335  0.49073578     0.29100
F243        F  0.61746127  0.01928129  0.48148461    -0.20300
H244        H  0.65638183  0.46629572  0.46293051     0.17400
H245        H  0.77564322  0.04484016  0.52051985     0.17400
F246        F  0.79085518  0.48271595  0.52972603    -0.20300
C247        C  0.74711119  0.24671971  0.44924015    -0.21800
C248        C  0.76126245  0.22638350  0.47352031    -0.09800
C249        C  0.79767168  0.23608489  0.49611214     0.29100
C250        C  0.81641681  0.26669751  0.49560767    -0.21800
C251        C  0.79904070  0.28770864  0.47259215    -0.09800
C252        C  0.76569798  0.27700057  0.44863232     0.29100
F253        F  0.74895747  0.29621951  0.42543274    -0.20300
H254        H  0.71992330  0.23941574  0.43114569     0.17400
H255        H  0.84185291  0.27452804  0.51442655     0.17400
F256        F  0.81192555  0.21690629  0.51992773    -0.20300
C257        C  0.03720458  0.97417328  0.03860337    -0.21800
C258        C  0.03846951  0.00384427  0.02447582    -0.09800
C259        C  0.99963589  0.51153657  0.00335963     0.29100
C260        C  0.95177715  0.49266292  0.49464887    -0.21800
C261        C  0.96127477  0.45965319  0.00926398    -0.09800
C262        C  0.00033843  0.45246385  0.03111868     0.29100
F263        F  0.00243819  0.42393006  0.04460041    -0.20300
H264        H  0.06490955  0.96837029  0.05672107     0.17400
H265        H  0.92205962  0.49942907  0.47819608     0.17400
F266        F  0.98809588  0.54326670  0.48936302    -0.20300
C267        C  0.25620194  0.00056913  0.32722977    -0.21800
C268        C  0.26490588  0.47605509  0.30436428    -0.09800
C269        C  0.29937657  0.48211763  0.27932376     0.29100
C270        C  0.31875434  0.51216662  0.27501511    -0.21800
C271        C  0.30847484  0.03657606  0.29766209    -0.09800
C272        C  0.27492469  0.03041725  0.32273910     0.29100
F273        F  0.25890473  0.05360010  0.34235318    -0.20300
H274        H  0.22941414  0.99682692  0.34650169     0.17400
H275        H  0.34365604  0.51691945  0.25501190     0.17400
F276        F  0.31305359  0.45942837  0.25844997    -0.20300
C277        C  0.26098217  0.28210414  0.28114999    -0.21800
C278        C  0.20940078  0.28808200  0.28795932    -0.09800
C279        C  0.17573028  0.26315941  0.29360027     0.29100
C280        C  0.19490967  0.23270313  0.29483180    -0.21800
C281        C  0.24751840  0.22721924  0.29021863    -0.09800
C282        C  0.27990174  0.25207709  0.28207452     0.29100
F283        F  0.33045207  0.24747540  0.27599018    -0.20300
H284        H  0.28720666  0.30099891  0.27586540     0.17400
H285        H  0.16942302  0.21377199  0.30110727     0.17400
F286        F  0.12553579  0.26845851  0.29998521    -0.20300
C287        C  0.03670963  0.48653303  0.29465973    -0.21800
C288        C  0.04532139  0.46013524  0.27537873    -0.09800
C289        C  0.01732376  0.45721501  0.24692763     0.29100
C290        C  0.98151895  0.47995155  0.23831278    -0.21800
C291        C  0.97068772  0.00609071  0.25941504    -0.09800
C292        C  0.00364336  0.01127085  0.28542902     0.29100
F293        F  0.00100511  0.03808776  0.30255459    -0.20300
H294        H  0.05745220  0.48952296  0.31673039     0.17400
H295        H  0.96073731  0.47695638  0.21625928     0.17400
F296        F  0.02480857  0.43256341  0.22718059    -0.20300
C297        C  0.99521292  0.35153291  0.41163338    -0.21800
C298        C  0.95161873  0.36981992  0.40662603    -0.09800
C299        C  0.94116587  0.38051171  0.37579375     0.29100
C300        C  0.97660124  0.37614417  0.35145306    -0.21800
C301        C  0.02292945  0.36110783  0.35739477    -0.09800
C302        C  0.03091520  0.34731330  0.38710398     0.29100
F303        F  0.07506836  0.33200246  0.39308178    -0.20300
H304        H  0.00350177  0.34253969  0.43501245     0.17400
H305        H  0.97012802  0.38725679  0.32880247     0.17400
F306        F  0.89814947  0.39694061  0.36961199    -0.20300
C307        C  0.20080645  0.18667478  0.07387866    -0.21800
C308        C  0.19591821  0.17368484  0.04343749    -0.09800
C309        C  0.20936929  0.19128468  0.01679681     0.29100
C310        C  0.22868367  0.22144861  0.02066271    -0.21800
C311        C  0.23639697  0.23388303  0.05120587    -0.09800
C312        C  0.22141391  0.21651535  0.07783385     0.29100
F313        F  0.22769940  0.22816587  0.10763163    -0.20300
H314        H  0.19126931  0.17306170  0.09461034     0.17400
H315        H  0.24030585  0.23441573  0.99990705     0.17400
F316        F  0.20579493  0.17873656  0.98720059    -0.20300
C317        C  0.31516804  0.47621613  0.03547155    -0.21800
C318        C  0.26224126  0.48186676  0.03304339    -0.09800
C319        C  0.22882336  0.45685785  0.02674828     0.29100
C320        C  0.24674908  0.42661680  0.02722787    -0.21800
C321        C  0.29854757  0.42054666  0.03285935    -0.09800
C322        C  0.33351506  0.44549257  0.03491012     0.29100
F323        F  0.38442076  0.44016803  0.03839336    -0.20300
H324        H  0.33818363  0.99542278  0.04836903     0.17400
H325        H  0.21961559  0.40770365  0.02394830     0.17400
F326        F  0.17805671  0.46154873  0.02163085    -0.20300
C327        C  0.47180414  0.22242919  0.04370521    -0.21800
C328        C  0.46324477  0.24855343  0.02446725    -0.09800
C329        C  0.49307113  0.25170301  0.99673867     0.29100
C330        C  0.52885936  0.23123700  0.49425589    -0.21800
C331        C  0.53876186  0.20323371  0.00796619    -0.09800
C332        C  0.50919052  0.20022702  0.03581231     0.29100
F333        F  0.51588083  0.17568432  0.05541684    -0.20300
H334        H  0.45005255  0.21939576  0.06535494     0.17400
H335        H  0.55297954  0.23549079  0.47382044     0.17400
F336        F  0.48749087  0.27926083  0.48420225    -0.20300
C337        C  0.28623048  0.35798337  0.16358262    -0.21800
C338        C  0.25344362  0.34280752  0.14211637    -0.09800
C339        C  0.20027168  0.34291046  0.14827325     0.29100
C340        C  0.18114147  0.35628753  0.17646040    -0.21800
C341        C  0.21460286  0.37011202  0.19866177    -0.09800
C342        C  0.26724846  0.37178667  0.19121723     0.29100
F343        F  0.30100016  0.38583595  0.21129507    -0.20300
H344        H  0.32703266  0.35904143  0.15905740     0.17400
H345        H  0.14064309  0.35429860  0.18170056     0.17400
F346        F  0.16710791  0.32871464  0.12795905    -0.20300
C347        C  0.23686565  0.33668998  0.44236369    -0.21800
C348        C  0.28977292  0.33695319  0.44879581    -0.09800
C349        C  0.32323750  0.34907590  0.42573574     0.29100
C350        C  0.30337749  0.36275662  0.39809933    -0.21800
C351        C  0.25001212  0.36484445  0.39331780    -0.09800
C352        C  0.21720974  0.35070862  0.41536888     0.29100
F353        F  0.16573961  0.35085185  0.41127758    -0.20300
H354        H  0.20994990  0.32710152  0.45929538     0.17400
H355        H  0.32964927  0.37277280  0.38105820     0.17400
F356        F  0.37460319  0.34943296  0.43069107    -0.20300
C357        C  0.75582605  0.18157033  0.26007634    -0.21800
C358        C  0.80361508  0.17219251  0.24794340    -0.09800
C359        C  0.83428034  0.19394351  0.23175041     0.29100
C360        C  0.81597376  0.22408639  0.22665168    -0.21800
C361        C  0.76734702  0.23261444  0.23778474    -0.09800
C362        C  0.73770566  0.21142155  0.25486175     0.29100
F363        F  0.69021709  0.21927085  0.26532423    -0.20300
H364        H  0.73143263  0.16538742  0.27270126     0.17400
H365        H  0.83870295  0.24032918  0.21297722     0.17400
F366        F  0.88021130  0.18561469  0.21924610    -0.20300
C367        C  0.74547810  0.42879156  0.19923382    -0.21800
C368        C  0.71064760  0.42028645  0.22310580    -0.09800
C369        C  0.69391245  0.44309480  0.24487207     0.29100
C370        C  0.71380482  0.47342122  0.24353534    -0.21800
C371        C  0.75091750  0.48125343  0.22076432    -0.09800
C372        C  0.76552888  0.45882116  0.19804604     0.29100
F373        F  0.79975019  0.46576205  0.17482134    -0.20300
H374        H  0.75853090  0.41182016  0.18190324     0.17400
H375        H  0.69701147  0.99013041  0.26332448     0.17400
F376        F  0.66098962  0.43567937  0.26860139    -0.20300
C377        C  0.46955379  0.23417202  0.28681500    -0.21800
C378        C  0.46967351  0.20390841  0.27360883    -0.09800
C379        C  0.50756706  0.19674516  0.25093909     0.29100
C380        C  0.54432060  0.21906096  0.24208455    -0.21800
C381        C  0.54415983  0.24944432  0.25505122    -0.09800
C382        C  0.50582755  0.25674113  0.27750935     0.29100
F383        F  0.50325835  0.28561490  0.29062913    -0.20300
H384        H  0.44087624  0.24052978  0.30424050     0.17400
H385        H  0.57279974  0.21249593  0.22462238     0.17400
F386        F  0.50995705  0.16791166  0.23769833    -0.20300
C387        C  0.69921921  0.35835073  0.38220193    -0.21800
C388        C  0.73993664  0.38008128  0.38323090    -0.09800
C389        C  0.76344173  0.38870868  0.35462813     0.29100
C390        C  0.74835784  0.37501862  0.32612932    -0.21800
C391        C  0.70890557  0.35264523  0.32496590    -0.09800
C392        C  0.68343864  0.34487019  0.35322172     0.29100
F393        F  0.64479769  0.32365638  0.35300922    -0.20300
H394        H  0.68054693  0.35115767  0.40392078     0.17400
H395        H  0.76762564  0.38233386  0.30463644     0.17400
F396        F  0.80108204  0.41054906  0.35397661    -0.20300
C397        C  0.82829792  0.34290642  0.09800000    -0.21800
C398        C  0.79707875  0.36270143  0.08009859    -0.09800
C399        C  0.74740647  0.36949832  0.09111590     0.29100
C400        C  0.72808301  0.35496762  0.11808613    -0.21800
C401        C  0.75806502  0.33380825  0.13497366    -0.09800
C402        C  0.80905522  0.32868774  0.12547254     0.29100
F403        F  0.83913097  0.30862142  0.14166189    -0.20300
H404        H  0.86633371  0.33698943  0.08969215     0.17400
H405        H  0.68940783  0.36021444  0.12579111     0.17400
F406        F  0.71685323  0.38945850  0.07507043    -0.20300
C407        C  0.52611269  0.33835163  0.10030304    -0.21800
C408        C  0.47773319  0.35078690  0.10630194    -0.09800
C409        C  0.46673311  0.36352335  0.13636259     0.29100
C410        C  0.50210544  0.36060658  0.16117818    -0.21800
C411        C  0.54796422  0.34447063  0.15599186    -0.09800
C412        C  0.56096746  0.33498126  0.12496023     0.29100
F413        F  0.60563576  0.31996991  0.11898443    -0.20300
H414        H  0.53469187  0.32798292  0.07737520     0.17400
H415        H  0.49170083  0.36829242  0.18485844     0.17400
F416        F  0.41992855  0.37584497  0.14239892    -0.20300
O417        O  0.65234043  0.33161003  0.78999669    -0.82300
C418        C  0.73801754  0.31879578  0.66551048     0.97100
O419        O  0.76333332  0.32052019  0.69088697    -0.71400
O420        O  0.72753309  0.36888105  0.72004104    -0.75000
Al421      Al  0.73901657  0.32817628  0.73330238     1.49000
C422        C  0.69538797  0.38807606  0.73071312     0.92400
O423        O  0.58799135  0.34913878  0.71059746    -0.81200
O424        O  0.61968873  0.26398767  0.72853495    -0.74700
Al425      Al  0.62339240  0.33818515  0.74843843     1.90100
O426        O  0.59932089  0.30658123  0.68272753    -0.73800
O427        O  0.71610120  0.26209926  0.70954470    -0.73700
O428        O  0.69307839  0.30823855  0.66601858    -0.79300
O429        O  0.75712245  0.28763639  0.74723675    -0.77500
O430        O  0.67329878  0.31779461  0.72741125    -1.13700
O431        O  0.73176009  0.34024957  0.77612908    -0.72800
C432        C  0.69732481  0.34028334  0.79701701     0.97900
C433        C  0.57904282  0.33280444  0.68630422     0.94300
Al434      Al  0.65850189  0.28778193  0.69930557     1.55600
O435        O  0.65601219  0.37888190  0.74569217    -0.77500
C436        C  0.74872693  0.26291164  0.73169558     0.98400
C437        C  0.58412994  0.27284090  0.74679437     0.93300
O438        O  0.58054908  0.30134475  0.75476114    -0.82800
O439        O  0.35222058  0.32629391  0.48980750    -0.82300
C440        C  0.26819485  0.32828853  0.61422528     0.97100
O441        O  0.24224171  0.32419995  0.58938717    -0.71400
O442        O  0.27480912  0.36961075  0.55387650    -0.75000
Al443      Al  0.26592024  0.32702822  0.54640715     1.49000
C444        C  0.30682023  0.38772164  0.54117425     0.92400
O445        O  0.41883902  0.35272445  0.56663257    -0.81200
O446        O  0.38556840  0.26576301  0.55822851    -0.74700
Al447      Al  0.38148594  0.33748516  0.53046542     1.90100
O448        O  0.40764053  0.31329689  0.59826142    -0.73800
O449        O  0.28958989  0.26644676  0.57930527    -0.73700
O450        O  0.31392295  0.31914146  0.61528875    -0.79300
O451        O  0.25035130  0.28481060  0.53760249    -0.77500
O452        O  0.33213378  0.31914257  0.55355576    -1.13700
O453        O  0.27211149  0.33278843  0.50281859    -0.72800
C454        C  0.30893769  0.33040029  0.97979281     0.97900
C455        C  0.42966824  0.33829209  0.59160591     0.94300
Al456      Al  0.34760828  0.29333461  0.58502268     1.55600
O457        O  0.34838792  0.37766827  0.52945853    -0.77500
C458        C  0.25800524  0.26302542  0.55681937     0.98400
C459        C  0.42010101  0.27281067  0.53832155     0.93300
O460        O  0.42327425  0.30033559  0.52762324    -0.82800
O461        O  0.14889537  0.38246533  0.73971062    -0.82300
C462        C  0.22877503  0.38034703  0.86443492     0.97100
O463        O  0.25561268  0.38395999  0.83982795    -0.71400
O464        O  0.22480550  0.33819468  0.80366526    -0.75000
Al465      Al  0.23401067  0.38050299  0.79628668     1.49000
C466        C  0.19346502  0.32006420  0.79020754     0.92400
O467        O  0.08201175  0.35450132  0.81435720    -0.81200
O468        O  0.11648462  0.44224707  0.80662380    -0.74700
Al469      Al  0.11925852  0.37027884  0.77903576     1.90100
O470        O  0.08896939  0.39529920  0.84531554    -0.73800
O471        O  0.20990368  0.44054062  0.82998386    -0.73700
O472        O  0.18257975  0.38883486  0.86472115    -0.79300
O473        O  0.24952823  0.42248563  0.78787771    -0.77500
O474        O  0.16773974  0.38850930  0.80279520    -1.13700
O475        O  0.22900589  0.37430738  0.75205946    -0.72800
C476        C  0.19458378  0.37756850  0.73152830     0.97900
C477        C  0.06810158  0.36985748  0.83828149     0.94300
Al478      Al  0.15104960  0.41454584  0.83408344     1.55600
O479        O  0.15284392  0.33010071  0.77738037    -0.77500
C480        C  0.24068423  0.44429627  0.80716615     0.98400
C481        C  0.08215576  0.43532851  0.78655717     0.93300
O482        O  0.07716392  0.40749365  0.77647411    -0.82800
O483        O  0.84734145  0.37848556  0.53743121    -0.82300
C484        C  0.76671797  0.39247884  0.91682735     0.97100
O485        O  0.74213340  0.38950289  0.94236012    -0.71400
O486        O  0.77875280  0.34048833  0.96908295    -0.75000
Al487      Al  0.76712930  0.38080724  0.98420605     1.49000
C488        C  0.81151200  0.32132497  0.97859128     0.92400
O489        O  0.91520821  0.36054186  0.95790801    -0.81200
O490        O  0.88414872  0.44571978  0.98248546    -0.74700
Al491      Al  0.88317206  0.37094919  0.99712439     1.90100
O492        O  0.90606392  0.40526143  0.93420335    -0.73800
O493        O  0.78845987  0.44755645  0.96342685    -0.73700
O494        O  0.81152732  0.40338838  0.91742576    -0.79300
O495        O  0.74872022  0.42048254  0.00005831    -0.77500
O496        O  0.83237182  0.39178380  0.97806309    -1.13700
O497        O  0.76935666  0.36594439  0.52304882    -0.72800
C498        C  0.80334869  0.36777776  0.54416360     0.97900
C499        C  0.92392480  0.37814994  0.93480261     0.94300
Al500      Al  0.84622883  0.42289821  0.95173875     1.55600
O501        O  0.85052104  0.33048737  0.99398580    -0.77500
C502        C  0.75660337  0.44568670  0.98587410     0.98400
C503        C  0.92184996  0.43631019  0.99848786     0.93300
O504        O  0.92716331  0.40741441  0.00369441    -0.82800
O505        O  0.09108618  0.04773613  0.51635226    -0.82300
C506        C  0.24681948  0.08069703  0.60543879     0.97100
O507        O  0.21865470  0.05681374  0.60668866    -0.71400
O508        O  0.12425561  0.07322162  0.60412806    -0.75000
Al509      Al  0.16134260  0.04394063  0.58076115     1.49000
C510        C  0.08389782  0.08613945  0.59517409     0.92400
O511        O  0.13994497  0.12795170  0.54103271    -0.81200
O512        O  0.22644636  0.06867253  0.49482877    -0.74700
Al513      Al  0.11885637  0.08724353  0.52931488     1.90100
O514        O  0.22187289  0.12279187  0.52965242    -0.73800
O515        O  0.26493132  0.03878200  0.54494933    -0.73700
O516        O  0.25421156  0.09420854  0.57949933    -0.79300
O517        O  0.19810234  0.01218747  0.56132246    -0.77500
O518        O  0.17238242  0.07016528  0.54908395    -1.13700
O519        O  0.10032418  0.02480439  0.56239468    -0.72800
C520        C  0.07905150  0.02612144  0.53534693     0.97900
C521        C  0.18388087  0.13950943  0.53692666     0.94300
Al522      Al  0.23649281  0.08004894  0.53803866     1.55600
O523        O  0.07426530  0.08864373  0.56588826    -0.77500
C524        C  0.24406785  0.01320300  0.55251323     0.98400
C525        C  0.19262534  0.08463220  0.97885523     0.93300
O526        O  0.15195757  0.09105760  0.48818537    -0.82800
O527        O  0.91942911  0.04900312  0.76766451    -0.82300
C528        C  0.77004512  0.08016028  0.67512331     0.97100
O529        O  0.79917933  0.05676708  0.67399314    -0.71400
O530        O  0.89316510  0.07268859  0.67987896    -0.75000
Al531      Al  0.85352689  0.04345701  0.70140752     1.49000
C532        C  0.93186499  0.08669681  0.69031707     0.92400
O533        O  0.86744901  0.12864566  0.74309131    -0.81200
O534        O  0.78262401  0.06522199  0.78561729    -0.74700
Al535      Al  0.89055783  0.08788185  0.75456674     1.90100
O536        O  0.78614717  0.12050224  0.75383533    -0.73800
O537        O  0.74701979  0.03658690  0.73392569    -0.73700
O538        O  0.75878901  0.09243339  0.70145488    -0.79300
O539        O  0.81500007  0.01098595  0.71855246    -0.77500
O540        O  0.83939256  0.06947071  0.73309766    -1.13700
O541        O  0.91194223  0.02475229  0.72180751    -0.72800
C542        C  0.93154824  0.02670358  0.74928032     0.97900
C543        C  0.82280893  0.13894931  0.74816742     0.94300
Al544      Al  0.77418684  0.07779216  0.74291363     1.55600
O545        O  0.93809999  0.09042588  0.71977941    -0.77500
C546        C  0.76868436  0.01129287  0.72660954     0.98400
C547        C  0.81309360  0.07870508  0.80459688     0.93300
O548        O  0.85483995  0.09004682  0.79461205    -0.82800
O549        O  0.41932126  0.15719105  0.76738092    -0.82300
C550        C  0.26197333  0.13214712  0.85755589     0.97100
O551        O  0.29278652  0.15480865  0.85809182    -0.71400
O552        O  0.38606129  0.13642846  0.85620511    -0.75000
Al553      Al  0.34999929  0.16530029  0.83168710     1.49000
C554        C  0.42491578  0.12149878  0.84758506     0.92400
O555        O  0.36626576  0.07897265  0.79456286    -0.81200
O556        O  0.28363061  0.13718879  0.74614826    -0.74700
Al557      Al  0.38976338  0.11867308  0.78176032     1.90100
O558        O  0.28412419  0.08570435  0.78452949    -0.73800
O559        O  0.24749588  0.17112172  0.79364537    -0.73700
O560        O  0.25193964  0.11847276  0.83183976    -0.79300
O561        O  0.31491109  0.19685242  0.81084661    -0.77500
O562        O  0.33716691  0.13777643  0.80096198    -1.13700
O563        O  0.41137134  0.18229743  0.81260337    -0.72800
C564        C  0.43134787  0.17996146  0.78526445     0.97900
C565        C  0.32125875  0.06848993  0.79195780     0.94300
Al566      Al  0.27235243  0.12903956  0.78992311     1.55600
O567        O  0.43429791  0.11775371  0.81835448    -0.77500
C568        C  0.27083628  0.19647891  0.79880012     0.98400
C569        C  0.31597369  0.12342214  0.72882592     0.93300
O570        O  0.35724615  0.11375255  0.74085888    -0.82800
O571        O  0.58763874  0.15870538  0.52074371    -0.82300
C572        C  0.74112349  0.12498053  0.92535767     0.97100
O573        O  0.70918927  0.14682009  0.92334456    -0.71400
O574        O  0.61645678  0.12859018  0.93066877    -0.75000
Al575      Al  0.65462709  0.16040904  0.95028739     1.49000
C576        C  0.57721309  0.11608195  0.94207866     0.92400
O577        O  0.64436931  0.07877190  0.99568283    -0.81200
O578        O  0.72639615  0.14364546  0.53663712    -0.74700
Al579      Al  0.62065442  0.11942982  0.00592388     1.90100
O580        O  0.72620226  0.08793374  0.00478913    -0.73800
O581        O  0.76078647  0.17159897  0.98262613    -0.73700
O582        O  0.75350550  0.11436523  0.95199580    -0.79300
O583        O  0.69172610  0.19467021  0.96512753    -0.77500
O584        O  0.67089834  0.13699167  0.98320370    -1.13700
O585        O  0.59526966  0.17929032  0.97033336    -0.72800
C586        C  0.57758685  0.17928491  0.99843230     0.97900
C587        C  0.68943885  0.06910701  0.00036228     0.94300
Al588      Al  0.73669213  0.13031016  0.99297400     1.55600
O589        O  0.57147335  0.11481957  0.97179833    -0.77500
C590        C  0.73787403  0.19583513  0.97361201     0.98400
C591        C  0.69736951  0.12995205  0.55612437     0.93300
O592        O  0.65472145  0.11897343  0.54713348    -0.82800
C593        C  0.54854535  0.10021549  0.88808369    -0.21800
C594        C  0.53611080  0.10658935  0.91993863    -0.09800
C595        C  0.48449486  0.11070230  0.92824328     0.29100
C596        C  0.44739726  0.11288170  0.90446423    -0.21800
C597        C  0.46114528  0.11075882  0.87217173    -0.09800
C598        C  0.51153099  0.10227543  0.86429759     0.29100
F599        F  0.52628740  0.09879222  0.83357617    -0.20300
H600        H  0.58777553  0.09591140  0.88127986     0.17400
H601        H  0.40857446  0.11853268  0.91131962     0.17400
F602        F  0.47065180  0.11610959  0.95885134    -0.20300
C603        C  0.74391120  0.09192034  0.84223651    -0.21800
C604        C  0.79599184  0.08560332  0.83742184    -0.09800
C605        C  0.83059229  0.09093390  0.86263048     0.29100
C606        C  0.81287385  0.10280141  0.89188812    -0.21800
C607        C  0.76100158  0.11072731  0.89574876    -0.09800
C608        C  0.72680285  0.10484596  0.87068999     0.29100
F609        F  0.67653197  0.11200685  0.87355120    -0.20300
H610        H  0.71652033  0.08862128  0.82315530     0.17400
H611        H  0.83985230  0.10695597  0.91100773     0.17400
F612        F  0.88133728  0.08519293  0.85879991    -0.20300
C613        C  0.76526665  0.10736436  0.58966012    -0.21800
C614        C  0.71703779  0.12156256  0.58791012    -0.09800
C615        C  0.68592543  0.12218140  0.61520419     0.29100
C616        C  0.70344295  0.10922257  0.64377429    -0.21800
C617        C  0.75102041  0.09397388  0.64510002    -0.09800
C618        C  0.78170769  0.09319090  0.61759644     0.29100
F619        F  0.82776700  0.07867829  0.61759804    -0.20300
H620        H  0.78927893  0.10572123  0.56870655     0.17400
H621        H  0.67917248  0.11026752  0.66461939     0.17400
F622        F  0.63854867  0.13500635  0.61413363    -0.20300
C623        C  0.25561611  0.12575772  0.68256895    -0.21800
C624        C  0.30298866  0.11609678  0.69499273    -0.09800
C625        C  0.33381536  0.09621014  0.67614472     0.29100
C626        C  0.31630164  0.08533087  0.64647352    -0.21800
C627        C  0.26803369  0.09406450  0.63508302    -0.09800
C628        C  0.23830302  0.11484183  0.65304904     0.29100
F629        F  0.19152450  0.12375873  0.64248248    -0.20300
H630        H  0.23082447  0.14087934  0.69626471     0.17400
H631        H  0.33974138  0.06939355  0.63282240     0.17400
F632        F  0.37982210  0.08609094  0.68684791    -0.20300
C633        C  0.17383614  0.09944067  0.92189640    -0.21800
C634        C  0.20919833  0.09438370  0.94657105    -0.09800
C635        C  0.26101905  0.10226786  0.94141752     0.29100
C636        C  0.27674265  0.11518734  0.91270688    -0.21800
C637        C  0.24187835  0.11992461  0.88796320    -0.09800
C638        C  0.19021585  0.11148390  0.89250843     0.29100
F639        F  0.15545983  0.11584665  0.86903555    -0.20300
H640        H  0.13367331  0.09410970  0.92540021     0.17400
H641        H  0.31666370  0.12125413  0.90964957     0.17400
F642        F  0.29647622  0.09892757  0.96470359    -0.20300
C643        C  0.06062308  0.09500679  0.65178783    -0.21800
C644        C  0.04630599  0.09540649  0.61955456    -0.09800
C645        C  0.99457419  0.09968041  0.61166335     0.29100
C646        C  0.95758535  0.10003794  0.63550826    -0.21800
C647        C  0.97144675  0.09601954  0.66742838    -0.09800
C648        C  0.02352339  0.09520273  0.67563152     0.29100
F649        F  0.03839671  0.09120563  0.70620740    -0.20300
H650        H  0.10038415  0.09213506  0.65854578     0.17400
H651        H  0.91763955  0.10125056  0.62877988     0.17400
F652        F  0.97905111  0.10048756  0.58093787    -0.20300
C653        C  0.68642197  0.48351531  0.97874279    -0.21800
C654        C  0.72977672  0.47387468  0.99557117    -0.09800
C655        C  0.75282986  0.49393289  0.01769143     0.29100
C656        C  0.74400427  0.02494402  0.01677947    -0.21800
C657        C  0.70080358  0.03557039  0.00022336    -0.09800
C658        C  0.67274695  0.01454365  0.98117585     0.29100
F659        F  0.63108631  0.02408081  0.96467410    -0.20300
H660        H  0.66884638  0.46819497  0.96132473     0.17400
H661        H  0.76599556  0.04065046  0.03175988     0.17400
F662        F  0.79501935  0.48492250  0.03403052    -0.20300
C663        C  0.74510975  0.24838141  0.95074244    -0.21800
C664        C  0.76431801  0.22620745  0.97184240    -0.09800
C665        C  0.80598617  0.23427999  0.99146704     0.29100
C666        C  0.82406457  0.26507709  0.99221927    -0.21800
C667        C  0.80125745  0.28787066  0.97313083    -0.09800
C668        C  0.76345876  0.27873156  0.95108895     0.29100
F669        F  0.74249218  0.29939983  0.93067813    -0.20300
H670        H  0.71439967  0.24244293  0.93439995     0.17400
H671        H  0.85387595  0.27144236  0.00901702     0.17400
F672        F  0.82693477  0.21308481  0.01124496    -0.20300
C673        C  0.03780121  0.97276551  0.53998011    -0.21800
C674        C  0.03850108  0.00270328  0.52651175    -0.09800
C675        C  0.99040994  0.51446164  0.50221605     0.29100
C676        C  0.96155738  0.48957277  0.99578421    -0.21800
C677        C  0.95192883  0.46238399  0.50740469    -0.09800
C678        C  0.99175241  0.45482774  0.52861000     0.29100
F679        F  0.99422554  0.42609685  0.54159375    -0.20300
H680        H  0.06723175  0.96625827  0.55674823     0.17400
H681        H  0.93260423  0.49594617  0.97865854     0.17400
F682        F  0.99800763  0.53979965  0.98931095    -0.20300
C683        C  0.25985302  0.99958895  0.82961467    -0.21800
C684        C  0.26438857  0.47498962  0.80310019    -0.09800
C685        C  0.30850407  0.47971907  0.78439575     0.29100
C686        C  0.32776979  0.50987162  0.78021370    -0.21800
C687        C  0.31004837  0.03608249  0.79914991    -0.09800
C688        C  0.27902841  0.02945414  0.82538555     0.29100
F689        F  0.26574495  0.05221923  0.84629186    -0.20300
H690        H  0.23461827  0.99539462  0.84958911     0.17400
H691        H  0.36122483  0.51352664  0.76546802     0.17400
F692        F  0.33250447  0.45547187  0.77000769    -0.20300
C693        C  0.25987319  0.28119316  0.78029985    -0.21800
C694        C  0.20850432  0.28728690  0.78762104    -0.09800
C695        C  0.17532207  0.26247371  0.79472538     0.29100
C696        C  0.19478009  0.23208956  0.79650349    -0.21800
C697        C  0.24725951  0.22657019  0.79129987    -0.09800
C698        C  0.27913949  0.25126608  0.78202928     0.29100
F699        F  0.32956938  0.24664736  0.77560697    -0.20300
H700        H  0.28576785  0.29999376  0.77415264     0.17400
H701        H  0.16969639  0.21329476  0.80372821     0.17400
F702        F  0.12551588  0.26786474  0.80213699    -0.20300
C703        C  0.03569999  0.48560821  0.79599762    -0.21800
C704        C  0.04599753  0.45998158  0.77599910    -0.09800
C705        C  0.02005838  0.45786975  0.74678759     0.29100
C706        C  0.98453796  0.48069189  0.73805574    -0.21800
C707        C  0.96996019  0.00283804  0.75918728    -0.09800
C708        C  0.00387956  0.00824001  0.78466248     0.29100
F709        F  0.00211472  0.03522181  0.80154536    -0.20300
H710        H  0.05486076  0.48783919  0.81869730     0.17400
H711        H  0.96541462  0.47833616  0.71536311     0.17400
F712        F  0.02943898  0.43396596  0.72640522    -0.20300
C713        C  0.99877002  0.34944067  0.91200140    -0.21800
C714        C  0.95502913  0.36772779  0.90767000    -0.09800
C715        C  0.94339473  0.37869404  0.87714412     0.29100
C716        C  0.97827397  0.37501379  0.85246448    -0.21800
C717        C  0.02489095  0.36015729  0.85781905    -0.09800
C718        C  0.03366146  0.34562757  0.88702425     0.29100
F719        F  0.07772999  0.32995697  0.89206309    -0.20300
H720        H  0.00779357  0.34017474  0.93516192     0.17400
H721        H  0.97112228  0.38646491  0.83007179     0.17400
F722        F  0.89987648  0.39486754  0.87169629    -0.20300
C723        C  0.21161597  0.18135619  0.57275402    -0.21800
C724        C  0.19292373  0.17253160  0.54292643    -0.09800
C725        C  0.19025386  0.19441629  0.51851640     0.29100
C726        C  0.20903729  0.22459892  0.52359521    -0.21800
C727        C  0.23100736  0.23297188  0.55297366    -0.09800
C728        C  0.23028887  0.21134358  0.57792666     0.29100
F729        F  0.24907970  0.21875270  0.60707844    -0.20300
H730        H  0.21379766  0.16451800  0.59170492     0.17400
H731        H  0.20873897  0.24087798  0.50411133     0.17400
F732        F  0.17196700  0.18615959  0.48948129    -0.20300
C733        C  0.30767080  0.47629672  0.54088299    -0.21800
C734        C  0.25489136  0.48191159  0.53733816    -0.09800
C735        C  0.22164765  0.45664040  0.53161218     0.29100
C736        C  0.23989598  0.42646399  0.53223511    -0.21800
C737        C  0.29176218  0.42049373  0.53793936    -0.09800
C738        C  0.32623323  0.44559634  0.54094649     0.29100
F739        F  0.37687403  0.44044130  0.54580579    -0.20300
H740        H  0.31370707  0.99001833  0.50910772     0.17400
H741        H  0.21291242  0.40750662  0.52872857     0.17400
F742        F  0.17077357  0.46097991  0.52651376    -0.20300
C743        C  0.46505722  0.22156368  0.54642925    -0.21800
C744        C  0.45876055  0.24883932  0.52849998    -0.09800
C745        C  0.49157725  0.25343698  0.50233111     0.29100
C746        C  0.52986240  0.22921201  0.98854935    -0.21800
C747        C  0.53520607  0.20397543  0.51217036    -0.09800
C748        C  0.50286350  0.19954230  0.53859531     0.29100
F749        F  0.50694978  0.17365585  0.55662334    -0.20300
H750        H  0.44100147  0.21737256  0.56690743     0.17400
H751        H  0.55174959  0.23231572  0.96696288     0.17400
F752        F  0.48654813  0.27637609  0.97727790    -0.20300
C753        C  0.27703754  0.36439242  0.66001621    -0.21800
C754        C  0.24571762  0.34462326  0.64180513    -0.09800
C755        C  0.19382964  0.34116989  0.65019811     0.29100
C756        C  0.17538962  0.35472928  0.67832470    -0.21800
C757        C  0.20839239  0.37207444  0.69806505    -0.09800
C758        C  0.25871389  0.37805592  0.68786500     0.29100
F759        F  0.29096051  0.39592154  0.70563775    -0.20300
H760        H  0.31604056  0.36885619  0.65289987     0.17400
H761        H  0.13654684  0.34973529  0.68581062     0.17400
F762        F  0.16195448  0.32306581  0.63247283    -0.20300
C763        C  0.24052783  0.33388679  0.93964545    -0.21800
C764        C  0.29273005  0.33716874  0.94705381    -0.09800
C765        C  0.32478847  0.35346092  0.92603261     0.29100
C766        C  0.30413881  0.36713764  0.89876231    -0.21800
C767        C  0.25123342  0.36534341  0.89257927    -0.09800
C768        C  0.21990988  0.34805835  0.91302363     0.29100
F769        F  0.16906119  0.34506391  0.90751996    -0.20300
H770        H  0.21489353  0.32165166  0.95553810     0.17400
H771        H  0.32910426  0.38021892  0.88319326     0.17400
F772        F  0.37495115  0.35827591  0.93306246    -0.20300
C773        C  0.77191308  0.18432086  0.76676353    -0.21800
C774        C  0.81149492  0.17267990  0.74742148    -0.09800
C775        C  0.83470417  0.19262160  0.72523060     0.29100
C776        C  0.81607271  0.22296122  0.72124550    -0.21800
C777        C  0.77510516  0.23389581  0.73982065    -0.09800
C778        C  0.75402988  0.21465071  0.76312183     0.29100
F779        F  0.71384522  0.22455829  0.78094573    -0.20300
H780        H  0.75342887  0.16945055  0.78401361     0.17400
H781        H  0.83210738  0.23746223  0.70278645     0.17400
F782        F  0.87248769  0.18210340  0.70581675    -0.20300
C783        C  0.74239181  0.42965060  0.70281348    -0.21800
C784        C  0.70707298  0.42146549  0.72649382    -0.09800
C785        C  0.68968044  0.44461335  0.74773468     0.29100
C786        C  0.71026655  0.47482712  0.74636599    -0.21800
C787        C  0.74857517  0.48202639  0.72410949    -0.09800
C788        C  0.76320720  0.45938062  0.70170477     0.29100
F789        F  0.79852487  0.46576226  0.67894641    -0.20300
H790        H  0.75571240  0.41252890  0.68573213     0.17400
H791        H  0.69341518  0.98997390  0.76721740     0.17400
F792        F  0.65551581  0.43766878  0.77094285    -0.20300
C793        C  0.47886488  0.23081305  0.79379671    -0.21800
C794        C  0.46975032  0.20403448  0.77492655    -0.09800
C795        C  0.49846959  0.20055913  0.74679411     0.29100
C796        C  0.53571994  0.22273456  0.73837270    -0.21800
C797        C  0.54501193  0.24937766  0.75728385    -0.09800
C798        C  0.51555044  0.25331273  0.78502169     0.29100
F799        F  0.52280263  0.27855476  0.80405844    -0.20300
H800        H  0.45747548  0.23444077  0.81551834     0.17400
H801        H  0.55696676  0.21920952  0.71657423     0.17400
F802        F  0.49099502  0.17563846  0.72735365    -0.20300
C803        C  0.70243403  0.36058297  0.88566885    -0.21800
C804        C  0.74405771  0.38168720  0.88626914    -0.09800
C805        C  0.76684033  0.39007116  0.85736893     0.29100
C806        C  0.75077156  0.37628132  0.82907026    -0.21800
C807        C  0.71094133  0.35409074  0.82838135    -0.09800
C808        C  0.68560644  0.34705126  0.85691536     0.29100
F809        F  0.64613353  0.32642530  0.85724982    -0.20300
H810        H  0.68394239  0.35379022  0.90758086     0.17400
H811        H  0.76973169  0.38327339  0.80736325     0.17400
F812        F  0.80480849  0.41168406  0.85624846    -0.20300
C813        C  0.81410499  0.36481949  0.60392925    -0.21800
C814        C  0.79057315  0.35455723  0.57572557    -0.09800
C815        C  0.75322414  0.33074143  0.57747802     0.29100
C816        C  0.73808334  0.31874848  0.60661744    -0.21800
C817        C  0.75989318  0.32965983  0.63496145    -0.09800
C818        C  0.79880261  0.35256825  0.63341139     0.29100
F819        F  0.82041097  0.36412526  0.66033986    -0.20300
H820        H  0.84310764  0.38285459  0.60323391     0.17400
H821        H  0.70859742  0.30095627  0.60696621     0.17400
F822        F  0.73124904  0.31861563  0.55087292    -0.20300
C823        C  0.52091376  0.34308776  0.60546004    -0.21800
C824        C  0.46980020  0.34884084  0.61354359    -0.09800
C825        C  0.45699611  0.35464298  0.64549151     0.29100
C826        C  0.49420647  0.35259579  0.66922986    -0.21800
C827        C  0.54409116  0.34357542  0.66140516    -0.09800
C828        C  0.55782315  0.34006029  0.62925178     0.29100
F829        F  0.60606535  0.33144139  0.62105620    -0.20300
H830        H  0.53115895  0.33766982  0.58110814     0.17400
H831        H  0.48291842  0.35505798  0.69387508     0.17400
F832        F  0.40751792  0.35902095  0.65405387    -0.20300
O833        O  0.65459347  0.82931145  0.28805688    -0.82300
C834        C  0.74014200  0.81996562  0.16460638     0.97100
O835        O  0.76585843  0.81852350  0.18977693    -0.71400
O836        O  0.72768992  0.86828994  0.21698495    -0.75000
Al837      Al  0.74027630  0.82803073  0.23164766     1.49000
C838        C  0.69534186  0.88710317  0.22831514     0.92400
O839        O  0.58954720  0.84821014  0.20934219    -0.81200
O840        O  0.62253949  0.76262574  0.22557580    -0.74700
Al841      Al  0.62495038  0.83665685  0.24686977     1.90100
O842        O  0.60108620  0.80609367  0.18087643    -0.73800
O843        O  0.71939600  0.76276145  0.20724009    -0.73700
O844        O  0.69469777  0.81023701  0.16438426    -0.79300
O845        O  0.75740247  0.78792563  0.24668180    -0.77500
O846        O  0.67484586  0.81712171  0.22564640    -1.13700
O847        O  0.73267285  0.84180321  0.27424957    -0.72800
C848        C  0.69834464  0.84006935  0.29514162     0.97900
C849        C  0.58127389  0.83243183  0.18462064     0.94300
Al850      Al  0.66086160  0.78774317  0.19696571     1.55600
O851        O  0.65719887  0.87748944  0.24432481    -0.77500
C852        C  0.74970443  0.76331876  0.23072341     0.98400
C853        C  0.58680251  0.77088001  0.24406092     0.93300
O854        O  0.58280755  0.79927895  0.25251844    -0.82800
O855        O  0.35247858  0.82675167  0.99036543    -0.82300
C856        C  0.27624534  0.82610951  0.11730005     0.97100
O857        O  0.24953289  0.82328370  0.09267406    -0.71400
O858        O  0.28018661  0.86991313  0.05751163    -0.75000
Al859      Al  0.27096070  0.82729522  0.04945401     1.49000
C860        C  0.31072248  0.88804217  0.04339669     0.92400
O861        O  0.42441496  0.85430637  0.06444434    -0.81200
O862        O  0.39439674  0.76775292  0.05807152    -0.74700
Al863      Al  0.38489769  0.83845716  0.02976567     1.90100
O864        O  0.41506175  0.81592773  0.09770690    -0.73800
O865        O  0.30026441  0.76633021  0.07983628    -0.73700
O866        O  0.32248613  0.81803091  0.11683841    -0.79300
O867        O  0.25570093  0.78497280  0.04029459    -0.77500
O868        O  0.33785065  0.81983267  0.05456708    -1.13700
O869        O  0.27398790  0.83416369  0.00614493    -0.72800
C870        C  0.30292885  0.83118547  0.48471017     0.97900
C871        C  0.43610120  0.84090171  0.08980536     0.94300
Al872      Al  0.35631283  0.79417683  0.08541648     1.55600
O873        O  0.35080396  0.87809754  0.02981064    -0.77500
C874        C  0.26715857  0.76271975  0.05826887     0.98400
C875        C  0.42664832  0.77470726  0.03687943     0.93300
O876        O  0.42789093  0.80194413  0.02546745    -0.82800
O877        O  0.15412837  0.88363621  0.24117888    -0.82300
C878        C  0.22804738  0.88274653  0.36786800     0.97100
O879        O  0.25608750  0.88555156  0.34373815    -0.71400
O880        O  0.22534668  0.83954045  0.30793476    -0.75000
Al881      Al  0.23599042  0.88177400  0.30010758     1.49000
C882        C  0.19541850  0.82163793  0.29294823     0.92400
O883        O  0.08397947  0.85628274  0.31535662    -0.81200
O884        O  0.11677596  0.94399298  0.30746027    -0.74700
Al885      Al  0.12216795  0.87190759  0.28038299     1.90100
O886        O  0.09010137  0.89688925  0.34676166    -0.73800
O887        O  0.21009304  0.94322197  0.33133523    -0.73700
O888        O  0.18247943  0.89216719  0.36705248    -0.79300
O889        O  0.25314713  0.92363102  0.29132407    -0.77500
O890        O  0.16958588  0.89036731  0.30498578    -1.13700
O891        O  0.23263572  0.87478596  0.25641236    -0.72800
C892        C  0.20022416  0.87738319  0.23463806     0.97900
C893        C  0.07040340  0.87108009  0.33974371     0.94300
Al894      Al  0.15159090  0.91688247  0.33556856     1.55600
O895        O  0.15581108  0.83188291  0.27920915    -0.77500
C896        C  0.24343175  0.94604579  0.30976726     0.98400
C897        C  0.08285706  0.93666980  0.28727378     0.93300
O898        O  0.07941900  0.90880243  0.27709097    -0.82800
O899        O  0.85729467  0.87739591  0.03873469    -0.82300
C900        C  0.76525574  0.89089228  0.41562861     0.97100
O901        O  0.74112144  0.88757739  0.44120081    -0.71400
O902        O  0.77752489  0.83842698  0.46858433    -0.75000
Al903      Al  0.76577766  0.87936529  0.48300933     1.49000
C904        C  0.80955347  0.81948015  0.47963197     0.92400
O905        O  0.91604593  0.85867564  0.45921730    -0.81200
O906        O  0.88622282  0.94374736  0.48016388    -0.74700
Al907      Al  0.88160496  0.86960827  0.49762220     1.90100
O908        O  0.90431849  0.90164422  0.43265285    -0.73800
O909        O  0.79033462  0.94631694  0.46251589    -0.73700
O910        O  0.81003911  0.90178394  0.41605952    -0.79300
O911        O  0.74715472  0.91965287  0.49809911    -0.77500
O912        O  0.83147330  0.89014376  0.47725778    -1.13700
O913        O  0.77639765  0.86969558  0.02722132    -0.72800
C914        C  0.81185181  0.87147885  0.04731307     0.97900
C915        C  0.92412700  0.87520170  0.43517323     0.94300
Al916      Al  0.84628684  0.92074055  0.45031037     1.55600
O917        O  0.84867831  0.82908953  0.49466802    -0.77500
C918        C  0.75758411  0.94496562  0.48451234     0.98400
C919        C  0.92190905  0.93466997  0.49800498     0.93300
O920        O  0.92550168  0.90599965  0.50463002    -0.82800
O921        O  0.08809460  0.55114698  0.01669496    -0.82300
C922        C  0.25207876  0.57752789  0.10065964     0.97100
O923        O  0.22480678  0.55325456  0.10165805    -0.71400
O924        O  0.13022126  0.57126475  0.10462624    -0.75000
Al925      Al  0.16400128  0.54280211  0.07774821     1.49000
C926        C  0.09007842  0.58578629  0.09782679     0.92400
O927        O  0.14378348  0.62943964  0.04318574    -0.81200
O928        O  0.22091761  0.56994860  0.99014983    -0.74700
Al929      Al  0.11891488  0.58964959  0.03050401     1.90100
O930        O  0.22348609  0.62242826  0.02754512    -0.73800
O931        O  0.26302892  0.53757378  0.03695416    -0.73700
O932        O  0.25814753  0.59167979  0.07492626    -0.79300
O933        O  0.19638483  0.51177125  0.05451338    -0.77500
O934        O  0.17307164  0.57049859  0.04706372    -1.13700
O935        O  0.10078388  0.52574169  0.06101471    -0.72800
C936        C  0.07797481  0.52831567  0.03461825     0.97900
C937        C  0.18811736  0.63985108  0.03754726     0.94300
Al938      Al  0.23626410  0.57944378  0.03355516     1.55600
O939        O  0.07834251  0.59011237  0.06902824    -0.77500
C940        C  0.23970291  0.51215794  0.04154536     0.98400
C941        C  0.18812245  0.58635270  0.47489754     0.93300
O942        O  0.14793891  0.59485324  0.98828774    -0.82800
O943        O  0.91833488  0.55030093  0.26791793    -0.82300
C944        C  0.77280771  0.58354041  0.17393081     0.97100
O945        O  0.80587223  0.56234807  0.17159789    -0.71400
O946        O  0.89776080  0.58108304  0.18093399    -0.75000
Al947      Al  0.85926974  0.54868709  0.19899899     1.49000
C948        C  0.93729304  0.59249576  0.19324457     0.92400
O949        O  0.86620073  0.63002252  0.24561037    -0.81200
O950        O  0.78233149  0.56380919  0.28417120    -0.74700
Al951      Al  0.89020602  0.58951426  0.25607988     1.90100
O952        O  0.78423950  0.62023720  0.25380768    -0.73800
O953        O  0.75300041  0.53592397  0.23101345    -0.73700
O954        O  0.75866845  0.59318967  0.20077978    -0.79300
O955        O  0.82212974  0.51373026  0.21202287    -0.77500
O956        O  0.84122795  0.57158327  0.23236944    -1.13700
O957        O  0.91780057  0.53003940  0.21974656    -0.72800
C958        C  0.93388612  0.52993703  0.24821805     0.97900
C959        C  0.82060312  0.63935322  0.24944023     0.94300
Al960      Al  0.77513331  0.57756839  0.24166310     1.55600
O961        O  0.94146633  0.59377869  0.22306024    -0.77500
C962        C  0.77650314  0.51196190  0.22142383     0.98400
C963        C  0.81044295  0.57771447  0.30411216     0.93300
O964        O  0.85195751  0.59014049  0.29528738    -0.82800
O965        O  0.42026551  0.65499173  0.26385808    -0.82300
C966        C  0.25879469  0.63300673  0.35280544     0.97100
O967        O  0.29034845  0.65533005  0.35329965    -0.71400
O968        O  0.38262641  0.63647434  0.35229076    -0.75000
Al969      Al  0.34837200  0.66515167  0.32719030     1.49000
C970        C  0.42154863  0.62115619  0.34486832     0.92400
O971        O  0.36209191  0.57824333  0.29202303    -0.81200
O972        O  0.28394769  0.63691138  0.24087250    -0.74700
Al973      Al  0.38815596  0.61722640  0.27872838     1.90100
O974        O  0.28087135  0.58612073  0.28003295    -0.73800
O975        O  0.24712842  0.67217410  0.28797794    -0.73700
O976        O  0.24845249  0.61957980  0.32694128    -0.79300
O977        O  0.31493677  0.69673313  0.30607526    -0.77500
O978        O  0.33554841  0.63750504  0.29670503    -1.13700
O979        O  0.41054016  0.68137091  0.30821004    -0.72800
C980        C  0.43193151  0.67815107  0.28134304     0.97900
C981        C  0.31679658  0.56843677  0.28845423     0.94300
Al982      Al  0.27066346  0.62959459  0.28489602     1.55600
O983        O  0.43190956  0.61632073  0.31592895    -0.77500
C984        C  0.27113565  0.69718065  0.29383654     0.98400
C985        C  0.31643561  0.62193791  0.22461875     0.93300
O986        O  0.35668242  0.61201456  0.23770491    -0.82800
O987        O  0.58994789  0.65943272  0.01859400    -0.82300
C988        C  0.73446279  0.62324469  0.42447790     0.97100
O989        O  0.70363074  0.64566929  0.42279197    -0.71400
O990        O  0.61060386  0.62851734  0.43030836    -0.75000
Al991      Al  0.64982040  0.65970286  0.45015207     1.49000
C992        C  0.57082835  0.61671598  0.44175069     0.92400
O993        O  0.63543905  0.57779658  0.49528779    -0.81200
O994        O  0.72689716  0.64296410  0.03503141    -0.74700
Al995      Al  0.61420737  0.61881336  0.50564898     1.90100
O996        O  0.71806083  0.58533483  0.50319268    -0.73800
O997        O  0.75602868  0.66919029  0.48346750    -0.73700
O998        O  0.74662911  0.61237206  0.45103934    -0.79300
O999        O  0.68830206  0.69342271  0.46537631    -0.77500
O1000       O  0.66517485  0.63568360  0.48291659    -1.13700
O1001       O  0.59090972  0.67909728  0.47033187    -0.72800
C1002       C  0.57286434  0.67892506  0.49834412     0.97900
C1003       C  0.67996177  0.56728052  0.49984163     0.94300
Al1004     Al  0.73059333  0.62776288  0.49241855     1.55600
O1005       O  0.56492248  0.61544746  0.47147124    -0.77500
C1006       C  0.73391227  0.69393113  0.47500769     0.98400
C1007       C  0.69729371  0.63033435  0.05488004     0.93300
O1008       O  0.65450703  0.61934733  0.04606261    -0.82800
C1009       C  0.54128470  0.59754244  0.38896783    -0.21800
C1010       C  0.52929749  0.60819621  0.41972762    -0.09800
C1011       C  0.47899209  0.61727890  0.42661922     0.29100
C1012       C  0.44287223  0.61876779  0.40234153    -0.21800
C1013       C  0.45628540  0.61147331  0.37073628    -0.09800
C1014       C  0.50499559  0.59894882  0.36458198     0.29100
F1015       F  0.51889962  0.59026664  0.33476710    -0.20300
H1016       H  0.57983225  0.59008762  0.38336616     0.17400
H1017       H  0.40540442  0.62796601  0.40803661     0.17400
F1018       F  0.46631086  0.62834511  0.45585147    -0.20300
C1019       C  0.73933353  0.59251596  0.34003024    -0.21800
C1020       C  0.79088250  0.58397358  0.33658296    -0.09800
C1021       C  0.82368705  0.58676044  0.36301582     0.29100
C1022       C  0.80511716  0.59858384  0.39206423    -0.21800
C1023       C  0.75423200  0.60896505  0.39471780    -0.09800
C1024       C  0.72135421  0.60530397  0.36848248     0.29100
F1025       F  0.67167211  0.61433534  0.37022672    -0.20300
H1026       H  0.71342707  0.59104728  0.31995978     0.17400
H1027       H  0.83095767  0.60078200  0.41208067     0.17400
F1028       F  0.87370302  0.57855541  0.36057310    -0.20300
C1029       C  0.76792808  0.61466562  0.09032236    -0.21800
C1030       C  0.71654174  0.62359525  0.08717281    -0.09800
C1031       C  0.68371494  0.62083399  0.11356936     0.29100
C1032       C  0.70212989  0.60861447  0.14227390    -0.21800
C1033       C  0.75290626  0.59797003  0.14458181    -0.09800
C1034       C  0.78580376  0.60168429  0.11842035     0.29100
F1035       F  0.83551162  0.59264687  0.11992098    -0.20300
H1036       H  0.79388966  0.61610827  0.07028160     0.17400
H1037       H  0.67630651  0.60643757  0.16228938     0.17400
F1038       F  0.63390268  0.62951566  0.11143195    -0.20300
C1039       C  0.26448794  0.62751061  0.17460664    -0.21800
C1040       C  0.30524667  0.61337860  0.19081863    -0.09800
C1041       C  0.33086919  0.58833456  0.17572734     0.29100
C1042       C  0.31448039  0.57707045  0.14599600    -0.21800
C1043       C  0.27310162  0.59086324  0.13042287    -0.09800
C1044       C  0.24876228  0.61650451  0.14469825     0.29100
F1045       F  0.20786062  0.62987199  0.13040658    -0.20300
H1046       H  0.24368174  0.64651608  0.18551067     0.17400
H1047       H  0.33342347  0.55717751  0.13542906     0.17400
F1048       F  0.37002460  0.57351032  0.19034969    -0.20300
C1049       C  0.17173052  0.59634310  0.41621077    -0.21800
C1050       C  0.20461892  0.59668025  0.44271773    -0.09800
C1051       C  0.25392711  0.60964207  0.43921014     0.29100
C1052       C  0.26981975  0.62197176  0.41022737    -0.21800
C1053       C  0.23778521  0.62124775  0.38348126    -0.09800
C1054       C  0.18853070  0.60785580  0.38658784     0.29100
F1055       F  0.15636871  0.60653573  0.36131394    -0.20300
H1056       H  0.13334353  0.58690285  0.41836925     0.17400
H1057       H  0.30803987  0.63177532  0.40859368     0.17400
F1058       F  0.28642661  0.61156916  0.46431144    -0.20300
C1059       C  0.06710392  0.58815810  0.15556465    -0.21800
C1060       C  0.05503221  0.59544068  0.12387064    -0.09800
C1061       C  0.00694596  0.60863495  0.11735716     0.29100
C1062       C  0.96990975  0.61076032  0.14123950    -0.21800
C1063       C  0.98034018  0.60037815  0.17207547    -0.09800
C1064       C  0.03019183  0.59069676  0.17954005     0.29100
F1065       F  0.04157024  0.58036036  0.20907787    -0.20300
H1066       H  0.10413668  0.57848498  0.16152109     0.17400
H1067       H  0.93177856  0.61859488  0.13511502     0.17400
F1068       F  0.99426385  0.61743745  0.08752716    -0.20300
C1069       C  0.68350277  0.98165507  0.48724972    -0.21800
C1070       C  0.73437504  0.97429720  0.49487184    -0.09800
C1071       C  0.76656104  0.99726650  0.50766377     0.29100
C1072       C  0.73150759  0.52274630  0.51818738    -0.21800
C1073       C  0.68906245  0.53358625  0.50108999    -0.09800
C1074       C  0.65986624  0.51247821  0.48282347     0.29100
F1075       F  0.61829141  0.52214781  0.46632063    -0.20300
H1076       H  0.65856002  0.96413370  0.47689632     0.17400
H1077       H  0.75401358  0.53849044  0.53282923     0.17400
F1078       F  0.81599412  0.99070822  0.51504501    -0.20300
C1079       C  0.75090335  0.74459256  0.44983318    -0.21800
C1080       C  0.76099045  0.72416103  0.47483266    -0.09800
C1081       C  0.79276767  0.73417422  0.49989952     0.29100
C1082       C  0.81142691  0.76490656  0.50057278    -0.21800
C1083       C  0.79864851  0.78581567  0.47628756    -0.09800
C1084       C  0.76951523  0.77497448  0.45040376     0.29100
F1085       F  0.75775247  0.79405229  0.42597393    -0.20300
H1086       H  0.72714941  0.73718492  0.43001351     0.17400
H1087       H  0.83340486  0.77286426  0.52094895     0.17400
F1088       F  0.80262298  0.71510699  0.52466204    -0.20300
C1089       C  0.03787237  0.47481405  0.03931777    -0.21800
C1090       C  0.03831609  0.50458161  0.02539563    -0.09800
C1091       C  0.00187838  0.01020206  0.00088131     0.29100
C1092       C  0.96084727  0.98848090  0.49717221    -0.21800
C1093       C  0.96338137  0.95817780  0.00617699    -0.09800
C1094       C  0.00068254  0.95151049  0.02939727     0.29100
F1095       F  0.00181230  0.92322036  0.04344300    -0.20300
H1096       H  0.06714927  0.46863766  0.05632541     0.17400
H1097       H  0.93148167  0.99535772  0.48053189     0.17400
F1098       F  0.99596275  0.03938056  0.49305205    -0.20300
C1099       C  0.25202973  0.50025280  0.32548207    -0.21800
C1100       C  0.26969082  0.97630287  0.30637435    -0.09800
C1101       C  0.30517061  0.98223776  0.28182588     0.29100
C1102       C  0.32461405  0.01236685  0.27763866    -0.21800
C1103       C  0.30382245  0.53625936  0.29545261    -0.09800
C1104       C  0.27110746  0.53010384  0.32100785     0.29100
F1105       F  0.25671611  0.55319600  0.34124476    -0.20300
H1106       H  0.22590205  0.49636168  0.34507227     0.17400
H1107       H  0.35022043  0.01709032  0.25800277     0.17400
F1108       F  0.31948954  0.95944238  0.26123036    -0.20300
C1109       C  0.26332384  0.78344585  0.28431857    -0.21800
C1110       C  0.21112687  0.78908570  0.28922004    -0.09800
C1111       C  0.17681599  0.76388733  0.29112513     0.29100
C1112       C  0.19569914  0.73330480  0.29054933    -0.21800
C1113       C  0.24869321  0.72794917  0.28776461    -0.09800
C1114       C  0.28197458  0.75336103  0.28334373     0.29100
F1115       F  0.33314588  0.74922794  0.27921244    -0.20300
H1116       H  0.29016666  0.80258715  0.28179084     0.17400
H1117       H  0.16946226  0.71404163  0.29402333     0.17400
F1118       F  0.12599011  0.76885634  0.29555925    -0.20300
C1119       C  0.04051957  0.98901922  0.29376557    -0.21800
C1120       C  0.04540603  0.96084562  0.27666038    -0.09800
C1121       C  0.01262373  0.95579185  0.25052347     0.29100
C1122       C  0.97613982  0.97818851  0.24198912    -0.21800
C1123       C  0.97213508  0.50601736  0.25793469    -0.09800
C1124       C  0.00055328  0.50909523  0.28622643     0.29100
F1125       F  0.99396859  0.53406133  0.30570026    -0.20300
H1126       H  0.06491119  0.99374768  0.31402873     0.17400
H1127       H  0.95167814  0.97349516  0.22174825     0.17400
F1128       F  0.01584311  0.92926996  0.23297994    -0.20300
C1129       C  0.00472779  0.85097234  0.41501234    -0.21800
C1130       C  0.95693512  0.86443760  0.40901089    -0.09800
C1131       C  0.94349220  0.87199586  0.37764598     0.29100
C1132       C  0.97960917  0.86974868  0.35342563    -0.21800
C1133       C  0.02928621  0.85988450  0.36017451    -0.09800
C1134       C  0.04096907  0.84878192  0.39058867     0.29100
F1135       F  0.08873461  0.83841719  0.39718606    -0.20300
H1136       H  0.01550098  0.84474348  0.43895796     0.17400
H1137       H  0.97033063  0.87867237  0.33014206     0.17400
F1138       F  0.89668457  0.88391482  0.37090494    -0.20300
C1139       C  0.24033439  0.67700062  0.06723060    -0.21800
C1140       C  0.20170755  0.67203084  0.04482751    -0.09800
C1141       C  0.18237520  0.69709075  0.02753279     0.29100
C1142       C  0.20288468  0.72696226  0.03232307    -0.21800
C1143       C  0.24269453  0.73187067  0.05441850    -0.09800
C1144       C  0.26064010  0.70647612  0.07217923     0.29100
F1145       F  0.29935643  0.70959708  0.09350650    -0.20300
H1146       H  0.25605113  0.65766150  0.08032068     0.17400
H1147       H  0.18855277  0.74602387  0.01827343     0.17400
F1148       F  0.14605947  0.69236684  0.00493609    -0.20300
C1149       C  0.31183951  0.97635281  0.04393719    -0.21800
C1150       C  0.25899403  0.98193290  0.04102061    -0.09800
C1151       C  0.22559891  0.95681513  0.03493884     0.29100
C1152       C  0.24377385  0.92664855  0.03500620    -0.21800
C1153       C  0.29562134  0.92069173  0.04048660    -0.09800
C1154       C  0.33029997  0.94568717  0.04345115     0.29100
F1155       F  0.38102065  0.94042608  0.04789017    -0.20300
H1156       H  0.34166796  0.49525527  0.03967791     0.17400
H1157       H  0.21682127  0.90769566  0.03138538     0.17400
F1158       F  0.17466476  0.96127681  0.03020528    -0.20300
C1159       C  0.47471788  0.72520312  0.04643056    -0.21800
C1160       C  0.46470938  0.75071574  0.02662423    -0.09800
C1161       C  0.49265226  0.75320419  0.99813282     0.29100
C1162       C  0.52327102  0.72824272  0.48840032    -0.21800
C1163       C  0.53878869  0.70489610  0.00946452    -0.09800
C1164       C  0.51136484  0.70275398  0.03820502     0.29100
F1165       F  0.51934676  0.67880376  0.05837832    -0.20300
H1166       H  0.45449842  0.72275377  0.06872328     0.17400
H1167       H  0.54511907  0.73172851  0.46686141     0.17400
F1168       F  0.47838620  0.77498226  0.47746066    -0.20300
C1169       C  0.28841981  0.85262812  0.16889064    -0.21800
C1170       C  0.25448461  0.84032139  0.14635358    -0.09800
C1171       C  0.20127071  0.84351811  0.15138978     0.29100
C1172       C  0.18299084  0.85781010  0.17927515    -0.21800
C1173       C  0.21748348  0.86938351  0.20215919    -0.09800
C1174       C  0.27050972  0.86734049  0.19608960     0.29100
F1175       F  0.30563267  0.87858419  0.21705916    -0.20300
H1176       H  0.32940751  0.85093544  0.16549898     0.17400
H1177       H  0.14211108  0.85848504  0.18363225     0.17400
F1178       F  0.16703153  0.83182934  0.13013274    -0.20300
C1179       C  0.23249469  0.84613504  0.44893052    -0.21800
C1180       C  0.28460803  0.83868220  0.45239376    -0.09800
C1181       C  0.31801779  0.84411730  0.42678809     0.29100
C1182       C  0.29956379  0.85815530  0.39904275    -0.21800
C1183       C  0.24797681  0.86758352  0.39679845    -0.09800
C1184       C  0.21468984  0.86107342  0.42209228     0.29100
F1185       F  0.16501206  0.87013966  0.42169124    -0.20300
H1186       H  0.20544070  0.84221483  0.46800512     0.17400
H1187       H  0.32594988  0.86242631  0.37969708     0.17400
F1188       F  0.36858692  0.83723259  0.42901891    -0.20300
C1189       C  0.76371514  0.68345934  0.26386498    -0.21800
C1190       C  0.80812025  0.67280247  0.24838327    -0.09800
C1191       C  0.83641461  0.69359409  0.22947910     0.29100
C1192       C  0.81907140  0.72409260  0.22522082    -0.21800
C1193       C  0.77376576  0.73410089  0.23992577    -0.09800
C1194       C  0.74659335  0.71380446  0.25960923     0.29100
F1195       F  0.70176611  0.72283694  0.27314714    -0.20300
H1196       H  0.74111381  0.66789133  0.27840878     0.17400
H1197       H  0.83955075  0.73940740  0.20927906     0.17400
F1198       F  0.87838618  0.68381821  0.21324434    -0.20300
C1199       C  0.73892541  0.92967345  0.19977032    -0.21800
C1200       C  0.70546827  0.92060896  0.22413191    -0.09800
C1201       C  0.68858308  0.94307580  0.24625337     0.29100
C1202       C  0.70832440  0.97345046  0.24526069    -0.21800
C1203       C  0.74525863  0.98148236  0.22247262    -0.09800
C1204       C  0.75889579  0.95965551  0.19899588     0.29100
F1205       F  0.79267113  0.96705660  0.17567410    -0.20300
H1206       H  0.75165620  0.91303251  0.18201680     0.17400
H1207       H  0.70202491  0.49036832  0.26121512     0.17400
F1208       F  0.65610770  0.93522860  0.27007886    -0.20300
C1209       C  0.47727067  0.72987649  0.28848861    -0.21800
C1210       C  0.47139329  0.70180856  0.27119989    -0.09800
C1211       C  0.50440439  0.69674508  0.24515982     0.29100
C1212       C  0.54216939  0.71888551  0.23712029    -0.21800
C1213       C  0.54791222  0.74698432  0.25438463    -0.09800
C1214       C  0.51457995  0.75217283  0.28019475     0.29100
F1215       F  0.51829724  0.77864094  0.29780614    -0.20300
H1216       H  0.45270010  0.73473429  0.30861140     0.17400
H1217       H  0.56659030  0.71415108  0.21689438     0.17400
F1218       F  0.50075960  0.67027361  0.22753214    -0.20300
C1219       C  0.70897896  0.85429576  0.38440066    -0.21800
C1220       C  0.74194091  0.88039323  0.38522477    -0.09800
C1221       C  0.75608194  0.89428429  0.35647940     0.29100
C1222       C  0.74029748  0.88119752  0.32763100    -0.21800
C1223       C  0.70984489  0.85407636  0.32664333    -0.09800
C1224       C  0.69293798  0.84120076  0.35532702     0.29100
F1225       F  0.66349254  0.81512278  0.35527172    -0.20300
H1226       H  0.69749583  0.84318767  0.40627885     0.17400
H1227       H  0.75247102  0.89218290  0.30580694     0.17400
F1228       F  0.78542954  0.92043360  0.35623382    -0.20300
C1229       C  0.83084858  0.84479430  0.09855063    -0.21800
C1230       C  0.79850887  0.86374870  0.08044241    -0.09800
C1231       C  0.74848221  0.86960549  0.09148768     0.29100
C1232       C  0.73038108  0.85529638  0.11890778    -0.21800
C1233       C  0.76158951  0.83500618  0.13608069    -0.09800
C1234       C  0.81259011  0.83052585  0.12627229     0.29100
F1235       F  0.84362023  0.81090254  0.14231708    -0.20300
H1236       H  0.86906469  0.83942010  0.09015863     0.17400
H1237       H  0.69158383  0.86000567  0.12672200     0.17400
F1238       F  0.71633204  0.88830820  0.07504239    -0.20300
C1239       C  0.52672461  0.84265956  0.10310507    -0.21800
C1240       C  0.47704567  0.85231408  0.11040025    -0.09800
C1241       C  0.46513534  0.86158261  0.14162289     0.29100
C1242       C  0.50109795  0.85784097  0.16591246    -0.21800
C1243       C  0.54856848  0.84424329  0.15909906    -0.09800
C1244       C  0.56223566  0.83833184  0.12729895     0.29100
F1245       F  0.60847373  0.82590885  0.11988902    -0.20300
H1246       H  0.53610796  0.83489827  0.07926431     0.17400
H1247       H  0.49017417  0.86279367  0.19024052     0.17400
F1248       F  0.41707725  0.87106680  0.14905374    -0.20300
O1249       O  0.64915280  0.82774623  0.78971229    -0.82300
C1250       C  0.74046439  0.81769755  0.66618867     0.97100
O1251       O  0.76421607  0.82005466  0.69205022    -0.71400
O1252       O  0.72487571  0.86794994  0.72095770    -0.75000
Al1253     Al  0.73758339  0.82716345  0.73396512     1.49000
C1254       C  0.69188708  0.88646957  0.73200106     0.92400
O1255       O  0.58780530  0.84684800  0.70970808    -0.81200
O1256       O  0.61997698  0.76147303  0.72618149    -0.74700
Al1257     Al  0.62148705  0.83525956  0.74790955     1.90100
O1258       O  0.60133289  0.80500846  0.68101244    -0.73800
O1259       O  0.71728118  0.76109461  0.70931502    -0.73700
O1260       O  0.69556371  0.80711963  0.66590617    -0.79300
O1261       O  0.75617363  0.78697334  0.74774074    -0.77500
O1262       O  0.67261199  0.81590646  0.72705548    -1.13700
O1263       O  0.72825144  0.83843055  0.77662978    -0.72800
C1264       C  0.69352402  0.83715255  0.79725091     0.97900
C1265       C  0.58101578  0.83122101  0.68466623     0.94300
Al1266     Al  0.65977169  0.78618919  0.69825088     1.55600
O1267       O  0.65294816  0.87637570  0.74679674    -0.77500
C1268       C  0.74892383  0.76230668  0.73197591     0.98400
C1269       C  0.58398034  0.76970120  0.74436354     0.93300
O1270       O  0.57946654  0.79800539  0.75274079    -0.82800
O1271       O  0.34909720  0.82500771  0.49072786    -0.82300
C1272       C  0.27753199  0.82759417  0.61788781     0.97100
O1273       O  0.24977143  0.82386318  0.59382641    -0.71400
O1274       O  0.28137018  0.86988429  0.55878365    -0.75000
Al1275     Al  0.26912789  0.82745379  0.55047778     1.49000
C1276       C  0.31388744  0.88776068  0.54610305     0.92400
O1277       O  0.42361846  0.85139535  0.56415734    -0.81200
O1278       O  0.38722029  0.76468182  0.55710883    -0.74700
Al1279     Al  0.38275061  0.83627846  0.52969566     1.90100
O1280       O  0.41553398  0.81196870  0.59615052    -0.73800
O1281       O  0.29411228  0.76674317  0.58211005    -0.73700
O1282       O  0.32358373  0.81886892  0.61736254    -0.79300
O1283       O  0.25076591  0.78528168  0.54198020    -0.77500
O1284       O  0.33549997  0.81856026  0.55480509    -1.13700
O1285       O  0.27125272  0.83405369  0.50689861    -0.72800
C1286       C  0.30610798  0.83238100  0.98416193     0.97900
C1287       C  0.43651546  0.83711543  0.58876865     0.94300
Al1288     Al  0.35345667  0.79269125  0.58553802     1.55600
O1289       O  0.35117744  0.87695483  0.53023979    -0.77500
C1290       C  0.26002965  0.76344805  0.56104106     0.98400
C1291       C  0.41977743  0.77123803  0.53581392     0.93300
O1292       O  0.42313348  0.79874607  0.52515689    -0.82800
O1293       O  0.15435760  0.88235706  0.74126146    -0.82300
C1294       C  0.22854616  0.88235987  0.86713086     0.97100
O1295       O  0.25674771  0.88507478  0.84296916    -0.71400
O1296       O  0.23031814  0.83934883  0.80594644    -0.75000
Al1297     Al  0.23798390  0.88185764  0.79902654     1.49000
C1298       C  0.20088333  0.82079874  0.79152358     0.92400
O1299       O  0.08831702  0.85307070  0.81582144    -0.81200
O1300       O  0.11811675  0.94201059  0.80553315    -0.74700
Al1301     Al  0.12438090  0.86957656  0.78027641     1.90100
O1302       O  0.08987453  0.89539026  0.84493980    -0.73800
O1303       O  0.21019013  0.94252466  0.83147111    -0.73700
O1304       O  0.18259251  0.89119728  0.86623982    -0.79300
O1305       O  0.25319588  0.92396018  0.79110128    -0.77500
O1306       O  0.17128113  0.88906094  0.80426163    -1.13700
O1307       O  0.23467526  0.87604708  0.75481819    -0.72800
C1308       C  0.20070948  0.87829724  0.73382989     0.97900
C1309       C  0.07208375  0.86880263  0.83895638     0.94300
Al1310     Al  0.15197296  0.91557369  0.83450750     1.55600
O1311       O  0.16023085  0.83025778  0.77840807    -0.77500
C1312       C  0.24374733  0.94584442  0.81015081     0.98400
C1313       C  0.08314536  0.93389662  0.78636894     0.93300
O1314       O  0.07923524  0.90563519  0.77737356    -0.82800
O1315       O  0.85301350  0.87642309  0.53922093    -0.82300
C1316       C  0.76492402  0.88853512  0.91655313     0.97100
O1317       O  0.74130824  0.88618989  0.94243126    -0.71400
O1318       O  0.77775338  0.83847861  0.97143466    -0.75000
Al1319     Al  0.76730998  0.87968285  0.98430784     1.49000
C1320       C  0.81100585  0.81962365  0.98098446     0.92400
O1321       O  0.91660557  0.85760600  0.95801185    -0.81200
O1322       O  0.88752332  0.94351639  0.97791297    -0.74700
Al1323     Al  0.88384301  0.86955285  0.99686781     1.90100
O1324       O  0.90474106  0.90042927  0.93143056    -0.73800
O1325       O  0.79087387  0.94565191  0.96064626    -0.73700
O1326       O  0.80982125  0.89930872  0.91622732    -0.79300
O1327       O  0.74985871  0.92031837  0.99804302    -0.77500
O1328       O  0.83291468  0.88986231  0.97708299    -1.13700
O1329       O  0.77364041  0.86704583  0.52546740    -0.72800
C1330       C  0.80830592  0.86727946  0.54618524     0.97900
C1331       C  0.92432905  0.87392322  0.93376859     0.94300
Al1332     Al  0.84685502  0.91965663  0.94909758     1.55600
O1333       O  0.85086534  0.82916195  0.99522681    -0.77500
C1334       C  0.75905607  0.94498503  0.98315245     0.98400
C1335       C  0.92405106  0.93463972  0.99526131     0.93300
O1336       O  0.92798511  0.90605899  0.00227522    -0.82800
O1337       O  0.08367957  0.55185807  0.51389905    -0.82300
C1338       C  0.24377884  0.57763163  0.60273609     0.97100
O1339       O  0.21475407  0.55410492  0.60316009    -0.71400
O1340       O  0.12164942  0.57401830  0.60239772    -0.75000
Al1341     Al  0.15515841  0.54447875  0.57743549     1.49000
C1342       C  0.08181193  0.58822111  0.59454761     0.92400
O1343       O  0.13699019  0.63039229  0.54113860    -0.81200
O1344       O  0.21964605  0.57183982  0.49190389    -0.74700
Al1345     Al  0.11372933  0.59049860  0.52809869     1.90100
O1346       O  0.21888895  0.62383815  0.53035458    -0.73800
O1347       O  0.25621437  0.53792305  0.53914460    -0.73700
O1348       O  0.25093373  0.59198804  0.57732821    -0.79300
O1349       O  0.18792124  0.51281474  0.55564358    -0.77500
O1350       O  0.16683033  0.57163855  0.54668703    -1.13700
O1351       O  0.09205664  0.52793617  0.55946063    -0.72800
C1352       C  0.07094733  0.52999091  0.53243009     0.97900
C1353       C  0.18186972  0.64100110  0.53856984     0.94300
Al1354     Al  0.23110767  0.58045889  0.53553623     1.55600
O1355       O  0.07056640  0.59138631  0.56549727    -0.77500
C1356       C  0.23219665  0.51266749  0.54396239     0.98400
C1357       C  0.18781372  0.58475412  0.97447786     0.93300
O1358       O  0.14593887  0.59537399  0.48662279    -0.82800
O1359       O  0.91991668  0.55058655  0.76785506    -0.82300
C1360       C  0.77191408  0.58108598  0.67411853     0.97100
O1361       O  0.80295305  0.55869344  0.67296956    -0.71400
O1362       O  0.89500275  0.57834972  0.68020545    -0.75000
Al1363     Al  0.85803442  0.54685050  0.70032176     1.49000
C1364       C  0.93400580  0.59145761  0.69142345     0.92400
O1365       O  0.86843647  0.62996397  0.74463026    -0.81200
O1366       O  0.78314493  0.56562605  0.78447653    -0.74700
Al1367     Al  0.89157771  0.58955852  0.75540637     1.90100
O1368       O  0.78638220  0.62126397  0.75328292    -0.73800
O1369       O  0.75210289  0.53699321  0.73209453    -0.73700
O1370       O  0.76038762  0.59334598  0.70039155    -0.79300
O1371       O  0.82176203  0.51291880  0.71644977    -0.77500
O1372       O  0.84164299  0.57143220  0.73269685    -1.13700
O1373       O  0.91800366  0.52932846  0.72030989    -0.72800
C1374       C  0.93496101  0.52981659  0.74852813     0.97900
C1375       C  0.82341064  0.63982103  0.74889097     0.94300
Al1376     Al  0.77597965  0.57855851  0.74183661     1.55600
O1377       O  0.94045810  0.59325876  0.72110697    -0.77500
C1378       C  0.77539167  0.51225902  0.72458776     0.98400
C1379       C  0.81216233  0.57925522  0.80411825     0.93300
O1380       O  0.85429721  0.59084590  0.79509313    -0.82800
O1381       O  0.42086846  0.65339748  0.76499694    -0.82300
C1382       C  0.25954484  0.62992220  0.85277985     0.97100
O1383       O  0.29106672  0.65222072  0.85478562    -0.71400
O1384       O  0.38369311  0.63160671  0.85345541    -0.75000
Al1385     Al  0.35082776  0.66189180  0.82924916     1.49000
C1386       C  0.42364873  0.61753760  0.84541710     0.92400
O1387       O  0.36298744  0.57624097  0.79171324    -0.81200
O1388       O  0.28754617  0.63794746  0.74162795    -0.74700
Al1389     Al  0.38966542  0.61534704  0.77905096     1.90100
O1390       O  0.28273972  0.58557289  0.77827238    -0.73800
O1391       O  0.25107318  0.67142711  0.78970187    -0.73700
O1392       O  0.25105317  0.61716150  0.82636336    -0.79300
O1393       O  0.31924695  0.69470479  0.80894300    -0.77500
O1394       O  0.33773890  0.63553315  0.79760739    -1.13700
O1395       O  0.41404943  0.67777936  0.81084765    -0.72800
C1396       C  0.43350116  0.67579854  0.78322756     0.97900
C1397       C  0.31740199  0.56718213  0.78720042     0.94300
Al1398     Al  0.27338598  0.62881306  0.78505487     1.55600
O1399       O  0.43397664  0.61390783  0.81623493    -0.77500
C1400       C  0.27597715  0.69598838  0.79607868     0.98400
C1401       C  0.31799929  0.62189142  0.72497788     0.93300
O1402       O  0.35769322  0.61069567  0.73772724    -0.82800
O1403       O  0.58752310  0.65849734  0.51786507    -0.82300
C1404       C  0.73587734  0.62406263  0.92486894     0.97100
O1405       O  0.70606843  0.64707103  0.92368972    -0.71400
O1406       O  0.61270701  0.63017466  0.93109890    -0.75000
Al1407     Al  0.65212828  0.66095610  0.95112451     1.49000
C1408       C  0.57365126  0.61731542  0.94235603     0.92400
O1409       O  0.63886092  0.57859891  0.99668033    -0.81200
O1410       O  0.72368851  0.64070031  0.53532732    -0.74700
Al1411     Al  0.61703046  0.61979614  0.00651101     1.90100
O1412       O  0.72114167  0.58672593  0.00485724    -0.73800
O1413       O  0.75936138  0.66948904  0.98212767    -0.73700
O1414       O  0.74739448  0.61234994  0.95121788    -0.79300
O1415       O  0.69055755  0.69429375  0.96684865    -0.77500
O1416       O  0.66758345  0.63664297  0.98352916    -1.13700
O1417       O  0.59364054  0.68038288  0.97134423    -0.72800
C1418       C  0.57632419  0.68041789  0.99947637     0.97900
C1419       C  0.68352012  0.56839446  0.00153737     0.94300
Al1420     Al  0.73315507  0.62869330  0.99254555     1.55600
O1421       O  0.56774133  0.61564396  0.97211185    -0.77500
C1422       C  0.73698121  0.69442442  0.97475736     0.98400
C1423       C  0.69422184  0.62717650  0.55459621     0.93300
O1424       O  0.65114812  0.61708843  0.54534977    -0.82800
C1425       C  0.54718800  0.60001037  0.88833275    -0.21800
C1426       C  0.53338345  0.60736348  0.91980182    -0.09800
C1427       C  0.48143345  0.61148600  0.92718326     0.29100
C1428       C  0.44504253  0.61193428  0.90285079    -0.21800
C1429       C  0.45977368  0.60826713  0.87080939    -0.09800
C1430       C  0.51080960  0.60034232  0.86398169     0.29100
F1431       F  0.52658728  0.59552278  0.83364531    -0.20300
H1432       H  0.58697851  0.59615127  0.88222323     0.17400
H1433       H  0.40578556  0.61742710  0.90897878     0.17400
F1434       F  0.46647802  0.61846879  0.95726761    -0.20300
C1435       C  0.74259848  0.59808128  0.83886746    -0.21800
C1436       C  0.79251828  0.58636972  0.83631895    -0.09800
C1437       C  0.82370086  0.58593142  0.86355901     0.29100
C1438       C  0.80490310  0.59732482  0.89274424    -0.21800
C1439       C  0.75565165  0.61045743  0.89476251    -0.09800
C1440       C  0.72455408  0.61037818  0.86747734     0.29100
F1441       F  0.67649022  0.62227585  0.86834818    -0.20300
H1442       H  0.71814230  0.59915774  0.81810701     0.17400
H1443       H  0.82938463  0.59685482  0.91348823     0.17400
F1444       F  0.87212048  0.57464796  0.86190307    -0.20300
C1445       C  0.76482823  0.60918554  0.58925396    -0.21800
C1446       C  0.71359679  0.61869930  0.58651301    -0.09800
C1447       C  0.68099721  0.61543017  0.61295732     0.29100
C1448       C  0.70008562  0.60384409  0.64177336    -0.21800
C1449       C  0.75110268  0.59368797  0.64408510    -0.09800
C1450       C  0.78311390  0.59623366  0.61735247     0.29100
F1451       F  0.83236141  0.58628786  0.61837392    -0.20300
H1452       H  0.79036164  0.61041131  0.56898932     0.17400
H1453       H  0.67463353  0.60189861  0.66199084     0.17400
F1454       F  0.63076755  0.62316166  0.61085230    -0.20300
C1455       C  0.26038575  0.62632252  0.67732148    -0.21800
C1456       C  0.30410106  0.61329598  0.69149952    -0.09800
C1457       C  0.32967092  0.58909862  0.67498043     0.29100
C1458       C  0.31046551  0.57755345  0.64594392    -0.21800
C1459       C  0.26596800  0.59010016  0.63261762    -0.09800
C1460       C  0.24172035  0.61499337  0.64820767     0.29100
F1461       F  0.19871600  0.62766990  0.63572424    -0.20300
H1462       H  0.23957043  0.64472989  0.68924631     0.17400
H1463       H  0.32991953  0.55855017  0.63409303     0.17400
F1464       F  0.37201220  0.57560845  0.68740315    -0.20300
C1465       C  0.18294215  0.62290904  0.92962551    -0.21800
C1466       C  0.19889115  0.59368785  0.94089333    -0.09800
C1467       C  0.23135841  0.57569001  0.92143288     0.29100
C1468       C  0.24903230  0.58728149  0.89228101    -0.21800
C1469       C  0.23533232  0.61713279  0.88194387    -0.09800
C1470       C  0.20130737  0.63467190  0.90064220     0.29100
F1471       F  0.18655206  0.66335059  0.89114369    -0.20300
H1472       H  0.15833005  0.63747634  0.94413590     0.17400
H1473       H  0.27545376  0.57338725  0.87833761     0.17400
F1474       F  0.24700308  0.54717960  0.93092682    -0.20300
C1475       C  0.06185634  0.59515587  0.65188314    -0.21800
C1476       C  0.04668454  0.59839122  0.61998218    -0.09800
C1477       C  0.99593799  0.60680479  0.61325460     0.29100
C1478       C  0.96000999  0.60828569  0.63772121    -0.21800
C1479       C  0.97401862  0.60112521  0.66902638    -0.09800
C1480       C  0.02577571  0.59627341  0.67627149     0.29100
F1481       F  0.04055015  0.58879881  0.70614668    -0.20300
H1482       H  0.10096973  0.58919226  0.65782278     0.17400
H1483       H  0.92033048  0.61252248  0.63181520     0.17400
F1484       F  0.97980203  0.61067120  0.58292111    -0.20300
C1485       C  0.69004113  0.98399487  0.97710064    -0.21800
C1486       C  0.73463084  0.97411346  0.99247750    -0.09800
C1487       C  0.76076150  0.99441938  0.01298819     0.29100
C1488       C  0.73492170  0.52424763  0.02121212    -0.21800
C1489       C  0.69369856  0.53480614  0.00277683    -0.09800
C1490       C  0.66793112  0.51380683  0.98257303     0.29100
F1491       F  0.62809311  0.52332363  0.96443024    -0.20300
H1492       H  0.67016125  0.96853237  0.96079975     0.17400
H1493       H  0.75499545  0.54001147  0.03714301     0.17400
F1494       F  0.80425099  0.98519678  0.02782427    -0.20300
C1495       C  0.74938754  0.74599485  0.95103359    -0.21800
C1496       C  0.76437160  0.72442270  0.97395366    -0.09800
C1497       C  0.80126880  0.73312404  0.99671373     0.29100
C1498       C  0.81934200  0.76393906  0.99789178    -0.21800
C1499       C  0.80089755  0.78608927  0.97634435    -0.09800
C1500       C  0.76741453  0.77639239  0.95203686     0.29100
F1501       F  0.75045719  0.79660506  0.92982129    -0.20300
H1502       H  0.72198979  0.73953175  0.93274186     0.17400
H1503       H  0.84533951  0.77090175  0.01675882     0.17400
F1504       F  0.81684124  0.71265735  0.01905120    -0.20300
C1505       C  0.02987077  0.47684406  0.53660681    -0.21800
C1506       C  0.03025334  0.50680822  0.52326034    -0.09800
C1507       C  0.99884754  0.01036859  0.50536455     0.29100
C1508       C  0.96483815  0.98786773  0.99216931    -0.21800
C1509       C  0.96093781  0.95810903  0.50962627    -0.09800
C1510       C  0.99987870  0.95065658  0.53154913     0.29100
F1511       F  0.00158474  0.92203793  0.54484437    -0.20300
H1512       H  0.05977397  0.47021646  0.55300174     0.17400
H1513       H  0.93732081  0.99387371  0.97402483     0.17400
F1514       F  0.00096236  0.03836928  0.98661150    -0.20300
C1515       C  0.24028656  0.50054365  0.81738761    -0.21800
C1516       C  0.27085408  0.97589311  0.80753893    -0.09800
C1517       C  0.30493588  0.98215192  0.78233268     0.29100
C1518       C  0.32434067  0.01223788  0.77821566    -0.21800
C1519       C  0.30212022  0.53525758  0.79379705    -0.09800
C1520       C  0.25836303  0.53034715  0.81241944     0.29100
F1521       F  0.23227519  0.55448181  0.82543178    -0.20300
H1522       H  0.20597066  0.49765694  0.83159340     0.17400
H1523       H  0.34829480  0.01727061  0.75786606     0.17400
F1524       F  0.31762565  0.95975127  0.76088778    -0.20300
C1525       C  0.27026721  0.78257692  0.78714892    -0.21800
C1526       C  0.21747123  0.78824858  0.78864231    -0.09800
C1527       C  0.18308064  0.76299732  0.78817957     0.29100
C1528       C  0.20190859  0.73245778  0.78891650    -0.21800
C1529       C  0.25501608  0.72707503  0.78967298    -0.09800
C1530       C  0.28895095  0.75246801  0.78733048     0.29100
F1531       F  0.34051139  0.74832017  0.78597638    -0.20300
H1532       H  0.29747363  0.80167732  0.78628989     0.17400
H1533       H  0.17515040  0.71319717  0.79039022     0.17400
F1534       F  0.13175506  0.76783165  0.78881656    -0.20300
C1535       C  0.04089797  0.98605065  0.79272072    -0.21800
C1536       C  0.04505153  0.95768263  0.77592452    -0.09800
C1537       C  0.01125084  0.95226374  0.75038463     0.29100
C1538       C  0.97448950  0.97461933  0.74211348    -0.21800
C1539       C  0.97330827  0.50599229  0.75835278    -0.09800
C1540       C  0.99960703  0.50819320  0.78751153     0.29100
F1541       F  0.99065041  0.53213262  0.80793574    -0.20300
H1542       H  0.06607481  0.99102675  0.81255275     0.17400
H1543       H  0.94931471  0.96973186  0.72226095     0.17400
F1544       F  0.01394748  0.92555180  0.73309343    -0.20300
C1545       C  0.00229826  0.84682659  0.91251467    -0.21800
C1546       C  0.95658301  0.86306244  0.90720779    -0.09800
C1547       C  0.94506709  0.87313953  0.87629223     0.29100
C1548       C  0.98142322  0.87073652  0.85227134    -0.21800
C1549       C  0.02949141  0.85808223  0.85856937    -0.09800
C1550       C  0.03889665  0.84444845  0.88820242     0.29100
F1551       F  0.08514871  0.83158376  0.89443950    -0.20300
H1552       H  0.01156615  0.83852984  0.93602388     0.17400
H1553       H  0.97389674  0.88158232  0.82960987     0.17400
F1554       F  0.90021694  0.88769385  0.86991767    -0.20300
C1555       C  0.22976820  0.67828692  0.57118552    -0.21800
C1556       C  0.19338616  0.67324007  0.54737539    -0.09800
C1557       C  0.17287718  0.69862918  0.53107758     0.29100
C1558       C  0.19301846  0.72853501  0.53641485    -0.21800
C1559       C  0.23263962  0.73326836  0.55867391    -0.09800
C1560       C  0.24860172  0.70797147  0.57732523     0.29100
F1561       F  0.28437649  0.71135558  0.60050218    -0.20300
H1562       H  0.24489719  0.65889805  0.58446929     0.17400
H1563       H  0.17899625  0.74769591  0.52238558     0.17400
F1564       F  0.13599489  0.69424198  0.50877292    -0.20300
C1565       C  0.30472096  0.97418175  0.52820896    -0.21800
C1566       C  0.27263254  0.98370798  0.55318400    -0.09800
C1567       C  0.26221521  0.96293175  0.57800150     0.29100
C1568       C  0.27864320  0.93230974  0.57616515    -0.21800
C1569       C  0.30640690  0.92166234  0.54979257    -0.09800
C1570       C  0.32182945  0.94320760  0.52652567     0.29100
F1571       F  0.35006451  0.93389785  0.50114875    -0.20300
H1572       H  0.33391645  0.49542708  0.54527042     0.17400
H1573       H  0.26777831  0.91650307  0.59495105     0.17400
F1574       F  0.23397775  0.97193225  0.60354478    -0.20300
C1575       C  0.46507601  0.72029099  0.54335110    -0.21800
C1576       C  0.45647988  0.74676538  0.52465647    -0.09800
C1577       C  0.48582515  0.75028774  0.49677255     0.29100
C1578       C  0.52883889  0.73045666  0.98963244    -0.21800
C1579       C  0.53297997  0.70227708  0.50768934    -0.09800
C1580       C  0.50282176  0.69845567  0.53517903     0.29100
F1581       F  0.50939122  0.67348681  0.55422817    -0.20300
H1582       H  0.44332263  0.71678827  0.56492288     0.17400
H1583       H  0.54918474  0.73292343  0.96739228     0.17400
F1584       F  0.48458042  0.77731797  0.97817916    -0.20300
C1585       C  0.28639802  0.86315017  0.66427316    -0.21800
C1586       C  0.25576762  0.84298710  0.64612765    -0.09800
C1587       C  0.20378027  0.83925005  0.65416413     0.29100
C1588       C  0.18411469  0.85361110  0.68143723    -0.21800
C1589       C  0.21598022  0.87198315  0.70084289    -0.09800
C1590       C  0.26679076  0.87767470  0.69133004     0.29100
F1591       F  0.29812238  0.89625439  0.70897549    -0.20300
H1592       H  0.32550511  0.86759722  0.65754458     0.17400
H1593       H  0.14511485  0.84855044  0.68856428     0.17400
F1594       F  0.17277604  0.82032887  0.63671779    -0.20300
C1595       C  0.23491144  0.84664182  0.94850594    -0.21800
C1596       C  0.28755011  0.84038367  0.95202494    -0.09800
C1597       C  0.32071477  0.84694093  0.92662207     0.29100
C1598       C  0.30143616  0.86050564  0.89889010    -0.21800
C1599       C  0.24909483  0.86811742  0.89630414    -0.09800
C1600       C  0.21599557  0.86065270  0.92141284     0.29100
F1601       F  0.16519255  0.86720480  0.92023578    -0.20300
H1602       H  0.20800224  0.84191994  0.96746871     0.17400
H1603       H  0.32768509  0.86561620  0.87968810     0.17400
F1604       F  0.37170625  0.84138026  0.92893433    -0.20300
C1605       C  0.77495270  0.68531061  0.76882665    -0.21800
C1606       C  0.81247869  0.67326806  0.74830251    -0.09800
C1607       C  0.83388158  0.69242795  0.72483960     0.29100
C1608       C  0.81502840  0.72252103  0.72062461    -0.21800
C1609       C  0.77590687  0.73387958  0.74031513    -0.09800
C1610       C  0.75699769  0.71553351  0.76501837     0.29100
F1611       F  0.71847496  0.72605774  0.78386558    -0.20300
H1612       H  0.75804309  0.67081190  0.78699997     0.17400
H1613       H  0.82923569  0.73644692  0.70115916     0.17400
F1614       F  0.86964672  0.68120759  0.70437425    -0.20300
C1615       C  0.73431829  0.92935037  0.70353582    -0.21800
C1616       C  0.70166058  0.92014840  0.72819028    -0.09800
C1617       C  0.68493612  0.94267356  0.75037933     0.29100
C1618       C  0.70431914  0.97326890  0.74907998    -0.21800
C1619       C  0.74052131  0.98141017  0.72580344    -0.09800
C1620       C  0.75356110  0.95944827  0.70231165     0.29100
F1621       F  0.78644120  0.96681229  0.67850506    -0.20300
H1622       H  0.74689648  0.91273376  0.68571624     0.17400
H1623       H  0.69821776  0.49210079  0.76364824     0.17400
F1624       F  0.65294227  0.93469988  0.77442043    -0.20300
C1625       C  0.48510885  0.72478893  0.79334612    -0.21800
C1626       C  0.47182727  0.69989739  0.77283748    -0.09800
C1627       C  0.49567881  0.69862160  0.74277933     0.29100
C1628       C  0.53241488  0.72105742  0.73409517    -0.21800
C1629       C  0.54563493  0.74581799  0.75467279    -0.09800
C1630       C  0.52109034  0.74755886  0.78434775     0.29100
F1631       F  0.53277200  0.77085521  0.80505169    -0.20300
H1632       H  0.46757554  0.72672504  0.81655579     0.17400
H1633       H  0.54997473  0.71936538  0.71086072     0.17400
F1634       F  0.48349068  0.67585115  0.72156157    -0.20300
C1635       C  0.70181884  0.85468334  0.88638939    -0.21800
C1636       C  0.74087533  0.87759063  0.88652527    -0.09800
C1637       C  0.76009118  0.88802969  0.85741171     0.29100
C1638       C  0.74289642  0.87488812  0.82914832    -0.21800
C1639       C  0.70613949  0.85084292  0.82873132    -0.09800
C1640       C  0.68435692  0.84136246  0.85762681     0.29100
F1641       F  0.64832332  0.81852008  0.85822402    -0.20300
H1642       H  0.68627922  0.84624959  0.90857224     0.17400
H1643       H  0.75909028  0.88357291  0.80722849     0.17400
F1644       F  0.79610994  0.91084776  0.85608875    -0.20300
C1645       C  0.82031868  0.86240748  0.60562900    -0.21800
C1646       C  0.79553692  0.85352065  0.57737800    -0.09800
C1647       C  0.75728975  0.83024945  0.57859579     0.29100
C1648       C  0.74178136  0.81788809  0.60742908    -0.21800
C1649       C  0.76394232  0.82801347  0.63596182    -0.09800
C1650       C  0.80455872  0.84982643  0.63484182     0.29100
F1651       F  0.82740332  0.86005109  0.66192790    -0.20300
H1652       H  0.85051378  0.87972647  0.60521101     0.17400
H1653       H  0.71139095  0.80065814  0.60740106     0.17400
F1654       F  0.73459840  0.81915448  0.55175940    -0.20300
C1655       C  0.52760100  0.84034644  0.60270010    -0.21800
C1656       C  0.47707198  0.84847009  0.60979394    -0.09800
C1657       C  0.46417630  0.85730172  0.64097040     0.29100
C1658       C  0.50000855  0.85471284  0.66541852    -0.21800
C1659       C  0.54867868  0.84279781  0.65886127    -0.09800
C1660       C  0.56336016  0.83748330  0.62710156     0.29100
F1661       F  0.61112374  0.82717173  0.61998801    -0.20300
H1662       H  0.53792618  0.83304038  0.57886947     0.17400
H1663       H  0.48820228  0.85910195  0.68970008     0.17400
F1664       F  0.41540043  0.86513684  0.64826096    -0.20300
loop_ 
_geom_bond_atom_site_label_1 
_geom_bond_atom_site_label_2 
_geom_bond_distance 
_geom_bond_site_symmetry_2 
_ccdc_geom_bond_type 
O1           C16   1.265       .  A
O1           Al9   1.927       .  S
C2           O12   1.259       .  A
C2            O3   1.258       .  A
C2          C401   1.475       .  S
O3           Al5   1.922       .  S
O4            C6   1.261       .  A
O4           Al5   1.873       .  S
Al5          O13   1.888       .  S
Al5          O15   1.881       .  S
Al5          O14   1.783       .  S
C6           O19   1.272       .  A
C6          C368   1.479       .  S
O7           C17   1.258       .  A
O7           Al9   1.911       .  S
O8           C21   1.266       .  A
O8          Al18   1.899       .  S
Al9          O22   1.967       .  S
Al9          O19   1.949       .  S
Al9          O14   1.787       .  S
O10          C17   1.255       .  A
O10         Al18   1.879       .  S
O11          C20   1.264       .  A
O11         Al18   1.918       .  S
O12         Al18   1.903       .  S
O13          C20   1.261       .  A
O14         Al18   1.775       .  S
O15          C16   1.258       .  A
C16         C391   1.482       .  S
C17         C411   1.470       .  S
C20         C361   1.456       .  S
C21          O22   1.276       .  A
C21         C381   1.506       .  S
O23         C454   1.262       .  A
O23         Al31   1.916   1_556  S
C24          O34   1.259       .  A
C24          O25   1.258       .  A
C24         C338   1.486       .  S
O25         Al27   1.923       .  S
O26          C28   1.264       .  A
O26         Al27   1.877       .  S
Al27         O35   1.893       .  S
Al27         O37   1.868       .  S
Al27         O36   1.785       .  S
C28          O41   1.266       .  A
C28         C321   1.468       .  S
O29          C39   1.256       .  A
O29         Al31   1.903       .  S
O30          C43   1.266       .  A
O30         Al40   1.910       .  S
Al31         O44   1.939       .  S
Al31         O41   1.929       .  S
Al31         O36   1.799       .  S
O32          C39   1.254       .  A
O32         Al40   1.874       .  S
O33          C42   1.265       .  A
O33         Al40   1.923       .  S
O34         Al40   1.905       .  S
O35          C42   1.260       .  A
O36         Al40   1.783       .  S
O37         C454   1.254   1_554  A
C38         O439   1.264       .  A
C38         O453   1.253       .  A
C38         C348   1.486       .  S
C39         C408   1.457       .  S
C42         C311   1.472       .  S
C43          O44   1.270       .  A
C43         C328   1.500       .  S
O45          C60   1.263       .  A
O45         Al53   1.926       .  S
C46          O56   1.261       .  A
C46          O47   1.260       .  A
C46         C351   1.486       .  S
O47         Al49   1.925       .  S
O48          C50   1.261       .  A
O48         Al49   1.862       .  S
Al49         O57   1.888       .  S
Al49         O59   1.873       .  S
Al49         O58   1.787       .  S
C50          O63   1.269       .  A
C50         C278   1.466       .  S
O51          C61   1.257       .  A
O51         Al53   1.916       .  S
O52          C65   1.266       .  A
O52         Al62   1.900       .  S
Al53         O66   1.946       .  S
Al53         O63   1.935       .  S
Al53         O58   1.795       .  S
O54          C61   1.251       .  A
O54         Al62   1.870       .  S
O55          C64   1.263       .  A
O55         Al62   1.910       .  S
O56         Al62   1.901       .  S
O57          C64   1.259       .  A
O58         Al62   1.782       .  S
O59          C60   1.253       .  A
C60         C341   1.486       .  S
C61         C301   1.463       .  S
C64         C268   1.475       .  S
C65          O66   1.273       .  A
C65         C288   1.496       .  S
O67          C82   1.265       .  A
O67        Al491   1.920   1_554  S
C68          O78   1.256       .  A
C68          O69   1.258       .  A
C68         C388   1.485       .  S
O69         Al71   1.918       .  S
O70          C72   1.259       .  A
O70         Al71   1.870       .  S
Al71         O79   1.889       .  S
Al71        O497   1.887       .  S
Al71         O80   1.786       .  S
C72          O85   1.268       .  A
C72         C251   1.474       .  S
O73          C83   1.260       .  A
O73         Al75   1.909       .  S
O74          C87   1.263       .  A
O74         Al84   1.905       .  S
Al75         O88   1.955       .  S
Al75         O85   1.940       .  S
Al75        O483   1.935       .  S
Al75         O80   1.792       .  S
O76          C83   1.259       .  A
O76         Al84   1.888       .  S
O77          C86   1.264       .  A
O77         Al84   1.909       .  S
O78         Al84   1.891       .  S
O79          C86   1.260       .  A
O80         Al84   1.780       .  S
O81          C82   1.258       .  A
O81        Al487   1.884   1_554  S
C82         C398   1.476       .  S
C83         C298   1.476       .  S
C86         C238   1.455       .  S
C87          O88   1.272       .  A
C87         C677   1.507       .  S
O89         C104   1.270       .  A
O89         Al97   1.928       .  S
C90         O100   1.256       .  A
C90          O91   1.263       .  A
C90         C211   1.487       .  S
O91         Al93   1.926       .  S
O92          C94   1.255       .  A
O92         Al93   1.873       .  S
Al93        O101   1.845       .  S
Al93        O103   1.943       .  S
Al93        O102   1.775       .  S
C94         O107   1.266       .  A
C94         C228   1.482       .  S
O95         C105   1.263       .  A
O95         Al97   1.905       .  S
O96         C525   1.261       .  A
O96        Al106   1.891   1_556  S
Al97        O110   1.948   1_554  S
Al97        O107   1.940       .  S
Al97        O102   1.784       .  S
O98         C105   1.263       .  A
O98        Al106   1.910       .  S
O99         C108   1.266       .  A
O99        Al106   1.943       .  S
O100       Al106   1.894       .  S
O101        C108   1.254       .  A
O102       Al106   1.785       .  S
O103        C104   1.269       .  A
C104        C258   1.505       .  S
C105        C308   1.462       .  S
C108       C1150   1.471   1_545  S
C109        O512   1.264       .  A
C109        O526   1.267       .  A
C109        C218   1.489       .  S
O110        C525   1.267       .  A
O111        C126   1.269       .  A
O111       Al119   1.918       .  S
C112        O122   1.259       .  A
C112        O113   1.262       .  A
C112        C201   1.488       .  S
O113       Al115   1.914       .  S
O114        C116   1.252       .  A
O114       Al115   1.874       .  S
Al115       O123   1.868       .  S
Al115       O125   1.938       .  S
Al115       O124   1.775       .  S
C116        O129   1.263       .  A
C116        C231   1.473       .  S
O117        C127   1.265       .  A
O117       Al119   1.910       .  S
O118        C131   1.264       .  A
O118       Al128   1.903       .  S
Al119       O132   1.932       .  S
Al119       O129   1.935       .  S
Al119       O124   1.790       .  S
O120        C127   1.263       .  A
O120       Al128   1.895       .  S
O121        C130   1.263       .  A
O121       Al128   1.926       .  S
O122       Al128   1.908       .  S
O123        C130   1.257       .  A
O124       Al128   1.788       .  S
O125        C126   1.269       .  A
C126        C291   1.499       .  S
C127        C358   1.474       .  S
C130       C1203   1.471   1_545  S
C131        O132   1.265       .  A
C131        C188   1.485       .  S
O133        C148   1.269       .  A
O133       Al141   1.924       .  S
C134        O144   1.257       .  A
C134        O135   1.263       .  A
C134        C221   1.489       .  S
O135       Al137   1.918       .  S
O136        C138   1.252       .  A
O136       Al137   1.873       .  S
Al137       O145   1.859       .  S
Al137       O147   1.939       .  S
Al137       O146   1.776       .  S
C138        O151   1.263       .  A
C138        C181   1.479       .  S
O139        C149   1.262       .  A
O139       Al141   1.895       .  S
O140        C153   1.261       .  A
O140       Al150   1.910       .  S
Al141       O154   1.920       .  S
Al141       O151   1.929       .  S
Al141       O146   1.792       .  S
O142        C149   1.264       .  A
O142       Al150   1.903       .  S
O143        C152   1.263       .  A
O143       Al150   1.930       .  S
O144       Al150   1.906       .  S
O145        C152   1.255       .  A
O146       Al150   1.793       .  S
O147        C148   1.269       .  A
C148        C378   1.502       .  S
C149        C271   1.456       .  S
C152        C281   1.470       .  S
C153        O154   1.262       .  A
C153        C208   1.475       .  S
O155        C586   1.268   1_554  A
O155       Al579   1.915       .  S
C156        O166   1.259       .  A
C156        O157   1.262       .  A
C156        C191   1.490       .  S
O157       Al159   1.917       .  S
O158        C160   1.250       .  A
O158       Al159   1.859       .  S
Al159       O167   1.862       .  S
Al159       O169   1.935       .  S
Al159       O168   1.776       .  S
C160        O173   1.263       .  A
C160        C178   1.474       .  S
O161        C171   1.267       .  A
O161       Al163   1.920       .  S
O162        C175   1.263       .  A
O162       Al588   1.900   1_554  S
Al163       O173   1.942       .  S
Al163       O571   1.922       .  S
Al163       O592   1.928       .  S
Al163       O168   1.797       .  S
O164        C171   1.263       .  A
O164       Al172   1.893       .  S
O165        C174   1.263       .  A
O165       Al172   1.928       .  S
O166       Al172   1.910       .  S
O167        C174   1.255       .  A
O168       Al172   1.790       .  S
O169        C170   1.269       .  A
C170        O571   1.269       .  A
C170        C747   1.501       .  S
C171        C241   1.482       .  S
Al172       O578   1.903       .  S
C174        C248   1.470       .  S
C175        O176   1.263       .  A
C175        C198   1.479       .  S
O176       Al579   1.927       .  S
C177        C178   1.407       .  A
C177        C182   1.394       .  A
C177        H184   1.081       .  S
C178        C179   1.403       .  A
C179        C180   1.398       .  A
C179        F186   1.357       .  S
C180        C181   1.410       .  A
C180        H185   1.082       .  S
C181        C182   1.404       .  A
C182        F183   1.358       .  S
C187        C188   1.403       .  A
C187        C192   1.398       .  A
C187        H194   1.084       .  S
C188        C189   1.409       .  A
C189        C190   1.409       .  A
C189        F196   1.357       .  S
C190        C191   1.408       .  A
C190        H195   1.083       .  S
C191        C192   1.409       .  A
C192        F193   1.356       .  S
C197        C198   1.402       .  A
C197        C202   1.395       .  A
C197        H204   1.084       .  S
C198        C199   1.407       .  A
C199        C200   1.408       .  A
C199        F206   1.357       .  S
C200        C201   1.409       .  A
C200        H205   1.083       .  S
C201        C202   1.409       .  A
C202        F203   1.357       .  S
C207        C208   1.401       .  A
C207        C212   1.406       .  A
C207        H214   1.082       .  S
C208        C209   1.405       .  A
C209        C210   1.397       .  A
C209        F216   1.357       .  S
C210        C211   1.403       .  A
C210        H215   1.082       .  S
C211        C212   1.414       .  A
C212        F213   1.357       .  S
C217        C218   1.409       .  A
C217        C222   1.413       .  A
C217        H224   1.083       .  S
C218        C219   1.408       .  A
C219        C220   1.396       .  A
C219        F226   1.357       .  S
C220        C221   1.403       .  A
C220        H225   1.083       .  S
C221        C222   1.411       .  A
C222        F223   1.357       .  S
C227        C228   1.409       .  A
C227        C232   1.396       .  A
C227        H234   1.084       .  S
C228        C229   1.406   1_455  A
C229        C230   1.398       .  A
C229        F236   1.357       .  S
C230        C231   1.406       .  A
C230        H235   1.084       .  S
C231        C232   1.403   1_655  A
C232        F233   1.358       .  S
C237        C238   1.401       .  A
C237       C1074   1.400       .  A
C237        H244   1.083       .  S
C238        C239   1.398       .  A
C239       C1072   1.391       .  A
C239        F246   1.358       .  S
C240        C241   1.408       .  A
C240       C1071   1.389   1_545  A
C240        H245   1.083       .  S
C241        C242   1.409       .  A
C242       C1069   1.406   1_545  A
C242        F243   1.357       .  S
C247        C248   1.402       .  A
C247        C252   1.388       .  A
C247        H254   1.085       .  S
C248        C249   1.405       .  A
C249        C250   1.403       .  A
C249        F256   1.357       .  S
C250        C251   1.407       .  A
C250        H255   1.085       .  S
C251        C252   1.406       .  A
C252        F253   1.358       .  S
C257        C258   1.412   1_565  A
C257       C1094   1.412       .  A
C257        H264   1.083       .  S
C258       C1091   1.408       .  A
C259       C1090   1.406   1_655  A
C259        C676   1.403   1_554  A
C259        F682   1.357   1_554  S
C260        C675   1.409       .  A
C260        C677   1.413       .  A
C260        H265   1.083       .  S
C261        C503   1.502   1_554  S
C261        C262   1.411   1_655  A
C261        C676   1.410   1_554  A
C262       C1089   1.410       .  A
C262        F263   1.357       .  S
F266        C675   1.357       .  S
C267        C272   1.386       .  A
C267       C1100   1.405   1_545  A
C267        H274   1.084   1_545  S
C268        C269   1.411       .  A
C268       C1099   1.405       .  A
C269        C270   1.399       .  A
C269        F276   1.357       .  S
C270       C1103   1.398       .  A
C270        H275   1.084       .  S
C271        C272   1.398       .  A
C271       C1102   1.401       .  A
C272        F273   1.357       .  S
C277        C278   1.401       .  A
C277        C282   1.385       .  A
C277        H284   1.084       .  S
C278        C279   1.405       .  A
C279        C280   1.405       .  A
C279        F286   1.357       .  S
C280        C281   1.407       .  A
C280        H285   1.083       .  S
C281        C282   1.404       .  A
C282        F283   1.359       .  S
C287        C288   1.409       .  A
C287       C1124   1.404       .  A
C287        H294   1.083       .  S
C288        C289   1.409       .  A
C289        C290   1.405   1_455  A
C289        F296   1.357       .  S
C290       C1123   1.410       .  A
C290        H295   1.083       .  S
C291        C292   1.409   1_655  A
C291       C1122   1.409   1_545  A
C292       C1119   1.407   1_545  A
C292        F293   1.357       .  S
C297        C298   1.403       .  A
C297        C302   1.402   1_655  A
C297        H304   1.083   1_655  S
C298        C299   1.408       .  A
C299        C300   1.393       .  A
C299        F306   1.355       .  S
C300        C301   1.397   1_655  A
C300        H305   1.084       .  S
C301        C302   1.405       .  A
C302        F303   1.354       .  S
C307        C308   1.400       .  A
C307        C312   1.398       .  A
C307        H314   1.084       .  S
C308        C309   1.402       .  A
C309        C310   1.398       .  A
C309        F316   1.358   1_554  S
C310        C311   1.404       .  A
C310        H315   1.083   1_554  S
C311        C312   1.407       .  A
C312        F313   1.358       .  S
C317        C318   1.407       .  A
C317        C322   1.407       .  A
C317       H1156   1.083       .  S
C318        C940   1.473       .  S
C318        C319   1.405       .  A
C319        C320   1.384       .  A
C319        F326   1.359       .  S
C320        C321   1.399       .  A
C320        H325   1.084       .  S
C321        C322   1.408       .  A
C322        F323   1.357       .  S
H324       C1149   1.083       .  S
C327        C328   1.409       .  A
C327        C332   1.406       .  A
C327        H334   1.082       .  S
C328        C329   1.410   1_554  A
C329        C746   1.407       .  A
C329        F752   1.357       .  S
C330        C745   1.406       .  A
C330        C747   1.410       .  A
C330        H335   1.082       .  S
C331        C586   1.500   1_554  S
C331        C332   1.410       .  A
C331        C746   1.410   1_554  A
C332        F333   1.357       .  S
F336        C745   1.357       .  S
C337        C338   1.401       .  A
C337        C342   1.394       .  A
C337        H344   1.082       .  S
C338        C339   1.412       .  A
C339        C340   1.408       .  A
C339        F346   1.357       .  S
C340        C341   1.407       .  A
C340        H345   1.083       .  S
C341        C342   1.411       .  A
C342        F343   1.358       .  S
C347        C348   1.407       .  A
C347        C352   1.391       .  A
C347        H354   1.083       .  S
C348        C349   1.408       .  A
C349        C350   1.409       .  A
C349        F356   1.357       .  S
C350        C351   1.411       .  A
C350        H355   1.083       .  S
C351        C352   1.403       .  A
C352        F353   1.354       .  S
C357        C358   1.407       .  A
C357        C362   1.389       .  A
C357        H364   1.084       .  S
C358        C359   1.408       .  A
C359        C360   1.402       .  A
C359        F366   1.357       .  S
C360        C361   1.402       .  A
C360        H365   1.083       .  S
C361        C362   1.396       .  A
C362        F363   1.358       .  S
C367        C368   1.405       .  A
C367        C372   1.392       .  A
C367        H374   1.084       .  S
C368        C369   1.408       .  A
C369        C370   1.403       .  A
C369        F376   1.357       .  S
C370        C371   1.405       .  A
C370       H1207   1.083       .  S
C371        C962   1.477       .  S
C371        C372   1.407       .  A
C372        F373   1.358       .  S
H375       C1202   1.083       .  S
C377        C378   1.411       .  A
C377        C382   1.410       .  A
C377        H384   1.082       .  S
C378        C379   1.408       .  A
C379        C380   1.406       .  A
C379        F386   1.357       .  S
C380        C381   1.412       .  A
C380        H385   1.082       .  S
C381        C382   1.411       .  A
C382        F383   1.357       .  S
C387        C388   1.412       .  A
C387        C392   1.408       .  A
C387        H394   1.083       .  S
C388        C389   1.404       .  A
C389        C390   1.389       .  A
C389        F396   1.356       .  S
C390        C391   1.407       .  A
C390        H395   1.084       .  S
C391        C392   1.405       .  A
C392        F393   1.357       .  S
C397        C398   1.405       .  A
C397        C402   1.405       .  A
C397        H404   1.083       .  S
C398        C399   1.408       .  A
C399        C400   1.394       .  A
C399        F406   1.358       .  S
C400        C401   1.401       .  A
C400        H405   1.084       .  S
C401        C402   1.407       .  A
C402        F403   1.357       .  S
C407        C408   1.395       .  A
C407        C412   1.390       .  A
C407        H414   1.084       .  S
C408        C409   1.406       .  A
C409        C410   1.402       .  A
C409        F416   1.357       .  S
C410        C411   1.402       .  A
C410        H415   1.083       .  S
C411        C412   1.408       .  A
C412        F413   1.357       .  S
O417        C432   1.265       .  A
O417       Al425   1.931       .  S
C418        O428   1.256       .  A
C418        O419   1.259       .  A
C418        C817   1.486       .  S
O419       Al421   1.922       .  S
O420        C422   1.260       .  A
O420       Al421   1.867       .  S
Al421       O429   1.905       .  S
Al421       O431   1.883       .  S
Al421       O430   1.787       .  S
C422        O435   1.269       .  A
C422        C784   1.479       .  S
O423        C433   1.258       .  A
O423       Al425   1.906       .  S
O424        C437   1.263       .  A
O424       Al434   1.897       .  S
Al425       O438   1.955       .  S
Al425       O435   1.947       .  S
Al425       O430   1.802       .  S
O426        C433   1.256       .  A
O426       Al434   1.883       .  S
O427        C436   1.264       .  A
O427       Al434   1.920       .  S
O428       Al434   1.888       .  S
O429        C436   1.263       .  A
O430       Al434   1.786       .  S
O431        C432   1.257       .  A
C432        C807   1.487       .  S
C433        C827   1.469       .  S
C436        C777   1.470       .  S
C437        O438   1.272       .  A
C437        C797   1.501       .  S
O439       Al447   1.932       .  S
C440        O450   1.259       .  A
C440        O441   1.258       .  A
C440        C754   1.476       .  S
O441       Al443   1.918       .  S
O442        C444   1.261       .  A
O442       Al443   1.869       .  S
Al443       O451   1.893       .  S
Al443       O453   1.862       .  S
Al443       O452   1.788       .  S
C444        O457   1.268       .  A
C444        C737   1.472       .  S
O445        C455   1.259       .  A
O445       Al447   1.919       .  S
O446        C459   1.268       .  A
O446       Al456   1.910       .  S
Al447       O460   1.941       .  S
Al447       O457   1.936       .  S
Al447       O452   1.797       .  S
O448        C455   1.250       .  A
O448       Al456   1.867       .  S
O449        C458   1.263       .  A
O449       Al456   1.915       .  S
O450       Al456   1.901       .  S
O451        C458   1.260       .  A
O452       Al456   1.783       .  S
C454        C764   1.474       .  S
C455        C824   1.465       .  S
C458        C727   1.477       .  S
C459        O460   1.272       .  A
C459        C744   1.501       .  S
O461        C476   1.259       .  A
O461       Al469   1.904       .  S
C462        O472   1.261       .  A
C462        O463   1.261       .  A
C462        C767   1.477       .  S
O463       Al465   1.924       .  S
O464        C466   1.259       .  A
O464       Al465   1.863       .  S
Al465       O473   1.885       .  S
Al465       O475   1.885       .  S
Al465       O474   1.785       .  S
C466        O479   1.269       .  A
C466        C694   1.468       .  S
O467        C477   1.255       .  A
O467       Al469   1.905       .  S
O468        C481   1.265       .  A
O468       Al478   1.898       .  S
Al469       O482   1.949       .  S
Al469       O479   1.941       .  S
Al469       O474   1.788       .  S
O470        C477   1.253       .  A
O470       Al478   1.878       .  S
O471        C480   1.263       .  A
O471       Al478   1.904       .  S
O472       Al478   1.897       .  S
O473        C480   1.258       .  A
O474       Al478   1.778       .  S
O475        C476   1.256       .  A
C476        C757   1.472       .  S
C477        C717   1.457       .  S
C480        C684   1.466       .  S
C481        O482   1.273       .  A
C481        C704   1.493       .  S
O483        C498   1.268       .  A
C484        O494   1.258       .  A
C484        O485   1.259       .  A
C484        C804   1.487       .  S
O485       Al487   1.920       .  S
O486        C488   1.258       .  A
O486       Al487   1.868       .  S
Al487       O495   1.891   1_556  S
Al487       O496   1.784       .  S
C488        O501   1.267       .  A
C488        C667   1.478       .  S
O489        C499   1.258       .  A
O489       Al491   1.902       .  S
O490        C503   1.263       .  A
O490       Al500   1.896       .  S
Al491       O504   1.957   1_556  S
Al491       O501   1.938       .  S
Al491       O496   1.797       .  S
O492        C499   1.258       .  A
O492       Al500   1.887       .  S
O493        C502   1.262       .  A
O493       Al500   1.909       .  S
O494       Al500   1.895       .  S
O495        C502   1.258   1_554  A
O496       Al500   1.780       .  S
O497        C498   1.258       .  A
C498        C814   1.487       .  S
C499        C714   1.470       .  S
C502        C654   1.458       .  S
C503        O504   1.272   1_556  A
O505        C520   1.270       .  A
O505       Al513   1.920       .  S
C506        O516   1.256       .  A
C506        O507   1.262       .  A
C506        C627   1.478       .  S
O507       Al509   1.929       .  S
O508        C510   1.253       .  A
O508       Al509   1.866       .  S
Al509       O517   1.857       .  S
Al509       O519   1.947       .  S
Al509       O518   1.777       .  S
C510        O523   1.265       .  A
C510        C644   1.474       .  S
O511        C521   1.260       .  A
O511       Al513   1.895       .  S
O512       Al522   1.899       .  S
Al513       O526   1.943       .  S
Al513       O523   1.931       .  S
Al513       O518   1.790       .  S
O514        C521   1.263       .  A
O514       Al522   1.914       .  S
O515        C524   1.268       .  A
O515       Al522   1.950       .  S
O516       Al522   1.902       .  S
O517        C524   1.256       .  A
O518       Al522   1.787       .  S
O519        C520   1.270       .  A
C520        C674   1.503       .  S
C521        C724   1.459       .  S
C524       C1566   1.474   1_545  S
C525        C634   1.490       .  S
O527        C542   1.269       .  A
O527       Al535   1.922       .  S
C528        O538   1.260       .  A
C528        O529   1.264       .  A
C528        C617   1.488       .  S
O529       Al531   1.921       .  S
O530        C532   1.252       .  A
O530       Al531   1.865       .  S
Al531       O539   1.867       .  S
Al531       O541   1.932       .  S
Al531       O540   1.775       .  S
C532        O545   1.261       .  A
C532        C647   1.469       .  S
O533        C543   1.266       .  A
O533       Al535   1.922       .  S
O534        C547   1.264       .  A
O534       Al544   1.896       .  S
Al535       O548   1.929       .  S
Al535       O545   1.923       .  S
Al535       O540   1.791       .  S
O536        C543   1.264       .  A
O536       Al544   1.914       .  S
O537        C546   1.264       .  A
O537       Al544   1.940       .  S
O538       Al544   1.905       .  S
O539        C546   1.255       .  A
O540       Al544   1.788       .  S
O541        C542   1.268       .  A
C542        C707   1.499       .  S
C543        C774   1.482       .  S
C546       C1619   1.478   1_545  S
C547        O548   1.265       .  A
C547        C604   1.481       .  S
O549        C564   1.269       .  A
O549       Al557   1.926       .  S
C550        O560   1.256       .  A
C550        O551   1.261       .  A
C550        C637   1.483       .  S
O551       Al553   1.916       .  S
O552        C554   1.254       .  A
O552       Al553   1.878       .  S
Al553       O561   1.866       .  S
Al553       O563   1.935       .  S
Al553       O562   1.778       .  S
C554        O567   1.265       .  A
C554        C597   1.481       .  S
O555        C565   1.261       .  A
O555       Al557   1.894       .  S
O556        C569   1.262       .  A
O556       Al566   1.902       .  S
Al557       O570   1.931       .  S
Al557       O567   1.932       .  S
Al557       O562   1.792       .  S
O558        C565   1.263       .  A
O558       Al566   1.902       .  S
O559        C568   1.264       .  A
O559       Al566   1.930       .  S
O560       Al566   1.902       .  S
O561        C568   1.257       .  A
O562       Al566   1.792       .  S
O563        C564   1.267       .  A
C564        C794   1.504       .  S
C565        C687   1.457       .  S
C568        C697   1.472       .  S
C569        O570   1.264       .  A
C569        C624   1.496       .  S
C572        O582   1.258       .  A
C572        O573   1.262       .  A
C572        C607   1.480       .  S
O573       Al575   1.911       .  S
O574        C576   1.252       .  A
O574       Al575   1.876       .  S
Al575       O583   1.863       .  S
Al575       O585   1.942       .  S
Al575       O584   1.773       .  S
C576        O589   1.262       .  A
C576        C594   1.476       .  S
O577        C587   1.265   1_556  A
O577       Al579   1.903   1_556  S
O578        C591   1.264       .  A
Al579       O589   1.936   1_554  S
Al579       O584   1.791   1_554  S
O580        C587   1.266       .  A
O580       Al588   1.911   1_554  S
O581        C590   1.265       .  A
O581       Al588   1.934       .  S
O582       Al588   1.904       .  S
O583        C590   1.257       .  A
O584       Al588   1.791       .  S
O585        C586   1.270       .  A
C587        C657   1.474       .  S
C590        C664   1.477       .  S
C591        O592   1.264       .  A
C591        C614   1.482       .  S
C593        C594   1.406       .  A
C593        C598   1.396       .  A
C593        H600   1.079       .  S
C594        C595   1.403       .  A
C595        C596   1.397       .  A
C595        F602   1.358       .  S
C596        C597   1.409       .  A
C596        H601   1.081       .  S
C597        C598   1.405       .  A
C598        F599   1.357       .  S
C603        C604   1.401       .  A
C603        C608   1.391       .  A
C603        H610   1.084       .  S
C604        C605   1.411       .  A
C605        C606   1.409       .  A
C605        F612   1.357       .  S
C606        C607   1.406       .  A
C606        H611   1.083       .  S
C607        C608   1.403       .  A
C608        F609   1.354       .  S
C613        C614   1.403       .  A
C613        C618   1.398       .  A
C613        H620   1.084       .  S
C614        C615   1.407       .  A
C615        C616   1.408       .  A
C615        F622   1.357       .  S
C616        C617   1.408       .  A
C616        H621   1.083       .  S
C617        C618   1.408       .  A
C618        F619   1.357       .  S
C623        C624   1.408       .  A
C623        C628   1.400       .  A
C623        H630   1.082       .  S
C624        C625   1.415       .  A
C625        C626   1.407       .  A
C625        F632   1.357       .  S
C626        C627   1.402       .  A
C626        H631   1.082       .  S
C627        C628   1.403       .  A
C628        F629   1.357       .  S
C633        C634   1.409       .  A
C633        C638   1.411       .  A
C633        H640   1.082       .  S
C634        C635   1.410       .  A
C635        C636   1.396       .  A
C635        F642   1.358       .  S
C636        C637   1.401       .  A
C636        H641   1.081       .  S
C637        C638   1.408       .  A
C638        F639   1.357       .  S
C643        C644   1.409       .  A
C643        C648   1.395       .  A
C643        H650   1.084       .  S
C644        C645   1.404   1_455  A
C645        C646   1.393       .  A
C645        F652   1.357       .  S
C646        C647   1.405       .  A
C646        H651   1.082       .  S
C647        C648   1.403   1_655  A
C648        F649   1.358       .  S
C653        C654   1.401       .  A
C653       C1490   1.399       .  A
C653        H660   1.083       .  S
C654        C655   1.399   1_556  A
C655       C1488   1.394       .  A
C655        F662   1.358       .  S
C656       C1487   1.393   1_545  A
C656        C657   1.406       .  A
C656        H661   1.084       .  S
C657        C658   1.407   1_554  A
C658       C1485   1.400   1_545  A
C658        F659   1.357       .  S
C663        C664   1.403       .  A
C663        C668   1.388       .  A
C663        H670   1.085       .  S
C664        C665   1.407       .  A
C665        C666   1.404       .  A
C665        F672   1.357   1_556  S
C666        C667   1.407       .  A
C666        H671   1.085   1_556  S
C667        C668   1.408       .  A
C668        F669   1.358       .  S
C673        C674   1.411   1_565  A
C673       C1510   1.413   1_455  A
C673        H680   1.083       .  S
C674       C1507   1.408   1_455  A
C675       C1506   1.409   1_655  A
C676        H681   1.083       .  S
C677        C678   1.411       .  A
C678       C1505   1.409   1_655  A
C678        F679   1.357       .  S
C683       C1516   1.405       .  A
C683        C688   1.389   1_565  A
C683        H690   1.084       .  S
C684       C1515   1.400       .  A
C684        C685   1.410       .  A
C685        C686   1.401       .  A
C685        F692   1.357       .  S
C686       C1519   1.401       .  A
C686        H691   1.083       .  S
C687       C1518   1.399       .  A
C687        C688   1.400       .  A
C688        F689   1.358       .  S
C693        C694   1.401       .  A
C693        C698   1.386       .  A
C693        H700   1.084       .  S
C694        C695   1.405       .  A
C695        C696   1.406       .  A
C695        F702   1.357       .  S
C696        C697   1.408       .  A
C696        H701   1.083       .  S
C697        C698   1.404       .  A
C698        F699   1.359       .  S
C703        C704   1.409       .  A
C703       C1540   1.404   1_455  A
C703        H710   1.083       .  S
C704        C705   1.407       .  A
C705        C706   1.404   1_455  A
C705        F712   1.357       .  S
C706       C1539   1.410       .  A
C706        H711   1.083       .  S
C707       C1538   1.411   1_545  A
C707        C708   1.409   1_655  A
C708       C1535   1.404   1_545  A
C708        F709   1.357       .  S
C713        C714   1.402       .  A
C713        C718   1.400   1_655  A
C713        H720   1.083   1_655  S
C714        C715   1.407       .  A
C715        C716   1.390       .  A
C715        F722   1.355       .  S
C716        C717   1.396   1_655  A
C716        H721   1.084       .  S
C717        C718   1.404       .  A
C718        F719   1.353       .  S
C723        C724   1.397       .  A
C723        C728   1.392       .  A
C723        H730   1.084       .  S
C724        C725   1.401       .  A
C725        C726   1.400       .  A
C725        F732   1.357       .  S
C726        C727   1.408       .  A
C726        H731   1.083       .  S
C727        C728   1.409       .  A
C728        F729   1.358       .  S
C733        C734   1.408       .  A
C733        C738   1.408       .  A
C733       H1572   1.083       .  S
C734       C1356   1.476       .  S
C734        C735   1.407       .  A
C735        C736   1.385       .  A
C735        F742   1.359       .  S
C736        C737   1.400       .  A
C736        H741   1.084       .  S
C737        C738   1.407       .  A
C738        F739   1.357       .  S
H740       C1565   1.083       .  S
C743        C744   1.410       .  A
C743        C748   1.408       .  A
C743        H750   1.082       .  S
C744        C745   1.410       .  A
C746        H751   1.082       .  S
C747        C748   1.410       .  A
C748        F749   1.357       .  S
C753        C754   1.401       .  A
C753        C758   1.393       .  A
C753        H760   1.078       .  S
C754        C755   1.407       .  A
C755        C756   1.402       .  A
C755        F762   1.357       .  S
C756        C757   1.405       .  A
C756        H761   1.083       .  S
C757        C758   1.405       .  A
C758        F759   1.358       .  S
C763        C764   1.404       .  A
C763        C768   1.390       .  A
C763        H770   1.084       .  S
C764        C765   1.407       .  A
C765        C766   1.404       .  A
C765        F772   1.357       .  S
C766        C767   1.407       .  A
C766        H771   1.083       .  S
C767        C768   1.402       .  A
C768        F769   1.353       .  S
C773        C774   1.407       .  A
C773        C778   1.397       .  A
C773        H780   1.084       .  S
C774        C775   1.408       .  A
C775        C776   1.406       .  A
C775        F782   1.358       .  S
C776        C777   1.405       .  A
C776        H781   1.083       .  S
C777        C778   1.400       .  A
C778        F779   1.358       .  S
C783        C784   1.404       .  A
C783        C788   1.388       .  A
C783        H790   1.084       .  S
C784        C785   1.410       .  A
C785        C786   1.405       .  A
C785        F792   1.357       .  S
C786        C787   1.405       .  A
C786       H1623   1.083       .  S
C787       C1378   1.474       .  S
C787        C788   1.405       .  A
C788        F789   1.358       .  S
H791       C1618   1.083       .  S
C793        C794   1.413       .  A
C793        C798   1.409       .  A
C793        H800   1.082       .  S
C794        C795   1.409       .  A
C795        C796   1.406       .  A
C795        F802   1.357       .  S
C796        C797   1.411       .  A
C796        H801   1.082       .  S
C797        C798   1.408       .  A
C798        F799   1.357       .  S
C803        C804   1.413       .  A
C803        C808   1.409       .  A
C803        H810   1.083       .  S
C804        C805   1.404       .  A
C805        C806   1.391       .  A
C805        F812   1.357       .  S
C806        C807   1.408       .  A
C806        H811   1.084       .  S
C807        C808   1.406       .  A
C808        F809   1.357       .  S
C813        C814   1.405       .  A
C813        C818   1.410       .  A
C813        H820   1.082       .  S
C814        C815   1.413       .  A
C815        C816   1.392       .  A
C815        F822   1.359       .  S
C816        C817   1.400       .  A
C816        H821   1.083       .  S
C817        C818   1.414       .  A
C818        F819   1.357       .  S
C823        C824   1.399       .  A
C823        C828   1.398       .  A
C823        H830   1.084       .  S
C824        C825   1.407       .  A
C825        C826   1.398       .  A
C825        F832   1.354       .  S
C826        C827   1.398       .  A
C826        H831   1.084       .  S
C827        C828   1.408       .  A
C828        F829   1.358       .  S
O833        C848   1.265       .  A
O833       Al841   1.929       .  S
C834        O844   1.256       .  A
C834        O835   1.257       .  A
C834       C1233   1.478       .  S
O835       Al837   1.927       .  S
O836        C838   1.263       .  A
O836       Al837   1.873       .  S
Al837       O845   1.897       .  S
Al837       O847   1.896       .  S
Al837       O846   1.786       .  S
C838        O851   1.272       .  A
C838       C1200   1.476       .  S
O839        C849   1.257       .  A
O839       Al841   1.902       .  S
O840        C853   1.265       .  A
O840       Al850   1.905       .  S
Al841       O854   1.960       .  S
Al841       O851   1.948       .  S
Al841       O846   1.788       .  S
O842        C849   1.256       .  A
O842       Al850   1.880       .  S
O843        C852   1.267       .  A
O843       Al850   1.923       .  S
O844       Al850   1.900       .  S
O845        C852   1.265       .  A
O846       Al850   1.778       .  S
O847        C848   1.258       .  A
C848       C1223   1.483       .  S
C849       C1243   1.468       .  S
C852       C1193   1.462       .  S
C853        O854   1.274       .  A
C853       C1213   1.508       .  S
O855       C1286   1.263       .  A
O855       Al863   1.926   1_556  S
C856        O866   1.257       .  A
C856        O857   1.255       .  A
C856       C1170   1.478       .  S
O857       Al859   1.913       .  S
O858        C860   1.264       .  A
O858       Al859   1.876       .  S
Al859       O867   1.898       .  S
Al859       O869   1.852       .  S
Al859       O868   1.790       .  S
C860        O873   1.266       .  A
C860       C1153   1.466       .  S
O861        C871   1.256       .  A
O861       Al863   1.908       .  S
O862        C875   1.263       .  A
O862       Al872   1.896       .  S
Al863       O876   1.941       .  S
Al863       O873   1.926       .  S
Al863       O868   1.801       .  S
O864        C871   1.251       .  A
O864       Al872   1.864       .  S
O865        C874   1.262       .  A
O865       Al872   1.900       .  S
O866       Al872   1.889       .  S
O867        C874   1.262       .  A
O868       Al872   1.779       .  S
O869       C1286   1.251   1_554  A
C870       O1271   1.261       .  A
C870       O1285   1.253       .  A
C870       C1180   1.482       .  S
C871       C1240   1.458       .  S
C874       C1143   1.478       .  S
C875        O876   1.270       .  A
C875       C1160   1.496       .  S
O877        C892   1.264       .  A
O877       Al885   1.920       .  S
C878        O888   1.258       .  A
C878        O879   1.258       .  A
C878       C1183   1.482       .  S
O879       Al881   1.917       .  S
O880        C882   1.261       .  A
O880       Al881   1.868       .  S
Al881       O889   1.892       .  S
Al881       O891   1.865       .  S
Al881       O890   1.785       .  S
C882        O895   1.267       .  A
C882       C1110   1.468       .  S
O883        C893   1.256       .  A
O883       Al885   1.904       .  S
O884        C897   1.265       .  A
O884       Al894   1.902       .  S
Al885       O898   1.949       .  S
Al885       O895   1.936       .  S
Al885       O890   1.793       .  S
O886        C893   1.254       .  A
O886       Al894   1.879       .  S
O887        C896   1.264       .  A
O887       Al894   1.906       .  S
O888       Al894   1.889       .  S
O889        C896   1.260       .  A
O890       Al894   1.778       .  S
O891        C892   1.254       .  A
C892       C1173   1.479       .  S
C893       C1133   1.458       .  S
C896       C1100   1.476       .  S
C897        O898   1.272       .  A
C897       C1120   1.501       .  S
O899        C914   1.265       .  A
O899      Al1323   1.923   1_554  S
C900        O910   1.257       .  A
C900        O901   1.256       .  A
C900       C1220   1.485       .  S
O901       Al903   1.912       .  S
O902        C904   1.261       .  A
O902       Al903   1.884       .  S
Al903       O911   1.906       .  S
Al903      O1329   1.881       .  S
Al903       O912   1.791       .  S
C904        O917   1.268       .  A
C904       C1083   1.480       .  S
O905        C915   1.259       .  A
O905       Al907   1.907       .  S
O906        C919   1.262       .  A
O906       Al916   1.903       .  S
Al907      O1315   1.925       .  S
Al907       O920   1.956       .  S
Al907       O917   1.943       .  S
Al907       O912   1.803       .  S
O908        C915   1.256       .  A
O908       Al916   1.876       .  S
O909        C918   1.262       .  A
O909       Al916   1.900       .  S
O910       Al916   1.902       .  S
O911        C918   1.262       .  A
O912       Al916   1.786       .  S
O913        C914   1.256       .  A
O913      Al1319   1.877   1_554  S
C914       C1230   1.478       .  S
C915       C1130   1.468       .  S
C918       C1070   1.465       .  S
C919        O920   1.270       .  A
C919       C1509   1.509       .  S
O921        C936   1.270       .  A
O921       Al929   1.924       .  S
C922        O932   1.257       .  A
C922        O923   1.262       .  A
C922       C1043   1.479       .  S
O923       Al925   1.930       .  S
O924        C926   1.256       .  A
O924       Al925   1.882       .  S
Al925       O933   1.855       .  S
Al925       O935   1.934       .  S
Al925       O934   1.780       .  S
C926        O939   1.267       .  A
C926       C1060   1.486       .  S
O927        C937   1.262       .  A
O927       Al929   1.900       .  S
O928       C1357   1.265       .  A
O928       Al938   1.913   1_556  S
Al929       O942   1.947   1_554  S
Al929       O939   1.937       .  S
Al929       O934   1.784       .  S
O930        C937   1.261       .  A
O930       Al938   1.899       .  S
O931        C940   1.265       .  A
O931       Al938   1.940       .  S
O932       Al938   1.904       .  S
O933        C940   1.255       .  A
O934       Al938   1.786       .  S
O935        C936   1.267       .  A
C936       C1090   1.500       .  S
C937       C1140   1.457       .  S
C941       O1344   1.262       .  A
C941       O1358   1.267       .  A
C941       C1050   1.493       .  S
O942       C1357   1.269       .  A
O943        C958   1.269       .  A
O943       Al951   1.912       .  S
C944        O954   1.257       .  A
C944        O945   1.261       .  A
C944       C1033   1.483       .  S
O945       Al947   1.908       .  S
O946        C948   1.252       .  A
O946       Al947   1.880       .  S
Al947       O955   1.871       .  S
Al947       O957   1.940       .  S
Al947       O956   1.775       .  S
C948        O961   1.262       .  A
C948       C1063   1.474       .  S
O949        C959   1.267       .  A
O949       Al951   1.909       .  S
O950        C963   1.261       .  A
O950       Al960   1.900       .  S
Al951       O964   1.930       .  S
Al951       O961   1.939       .  S
Al951       O956   1.791       .  S
O952        C959   1.267       .  A
O952       Al960   1.915       .  S
O953        C962   1.265       .  A
O953       Al960   1.929       .  S
O954       Al960   1.904       .  S
O955        C962   1.257       .  A
O956       Al960   1.788       .  S
O957        C958   1.271       .  A
C958       C1123   1.496       .  S
C959       C1190   1.477       .  S
C963        O964   1.263       .  A
C963       C1020   1.483       .  S
O965        C980   1.270       .  A
O965       Al973   1.933       .  S
C966        O976   1.258       .  A
C966        O967   1.262       .  A
C966       C1053   1.495       .  S
O967       Al969   1.919       .  S
O968        C970   1.251       .  A
O968       Al969   1.863       .  S
Al969       O977   1.851       .  S
Al969       O979   1.938       .  S
Al969       O978   1.774       .  S
C970        O983   1.264       .  A
C970       C1013   1.481       .  S
O971        C981   1.262       .  A
O971       Al973   1.895       .  S
O972        C985   1.265       .  A
O972       Al982   1.915       .  S
Al973       O986   1.925       .  S
Al973       O983   1.940       .  S
Al973       O978   1.794       .  S
O974        C981   1.262       .  A
O974       Al982   1.899       .  S
O975        C984   1.265       .  A
O975       Al982   1.937       .  S
O976       Al982   1.915       .  S
O977        C984   1.254       .  A
O978       Al982   1.795       .  S
O979        C980   1.269       .  A
C980       C1210   1.508       .  S
C981       C1103   1.455       .  S
C984       C1113   1.473       .  S
C985        O986   1.264       .  A
C985       C1040   1.497       .  S
O987       C1418   1.266   1_554  A
O987      Al1411   1.913       .  S
C988        O998   1.258       .  A
C988        O989   1.261       .  A
C988       C1023   1.485       .  S
O989       Al991   1.913       .  S
O990        C992   1.251       .  A
O990       Al991   1.875       .  S
Al991       O999   1.870       .  S
Al991      O1001   1.944       .  S
Al991      O1000   1.777       .  S
C992       O1005   1.263       .  A
C992       C1010   1.470       .  S
O993       C1003   1.264       .  A
O993       Al995   1.899       .  S
O994       C1007   1.262       .  A
O994      Al1420   1.895   1_554  S
Al995      O1403   1.913       .  S
Al995      O1424   1.933       .  S
Al995      O1005   1.935       .  S
Al995      O1000   1.793       .  S
O996       C1003   1.266       .  A
O996      Al1004   1.910       .  S
O997       C1006   1.266       .  A
O997      Al1004   1.938       .  S
O998      Al1004   1.907       .  S
O999       C1006   1.258       .  A
O1000     Al1004   1.788       .  S
O1001      C1002   1.270       .  A
C1002      O1403   1.268       .  A
C1002      C1579   1.500       .  S
C1003      C1073   1.471       .  S
Al1004     O1410   1.896       .  S
C1006      C1080   1.477       .  S
C1007      O1008   1.265       .  A
C1007      C1030   1.482       .  S
O1008     Al1411   1.933       .  S
C1009      C1010   1.407       .  A
C1009      C1014   1.399       .  A
C1009      H1016   1.082       .  S
C1010      C1011   1.401       .  A
C1011      C1012   1.393       .  A
C1011      F1018   1.358       .  S
C1012      C1013   1.410       .  A
C1012      H1017   1.082       .  S
C1013      C1014   1.406       .  A
C1014      F1015   1.357       .  S
C1019      C1020   1.403       .  A
C1019      C1024   1.397       .  A
C1019      H1026   1.084       .  S
C1020      C1021   1.409       .  A
C1021      C1022   1.408       .  A
C1021      F1028   1.357       .  S
C1022      C1023   1.407       .  A
C1022      H1027   1.083       .  S
C1023      C1024   1.407       .  A
C1024      F1025   1.357       .  S
C1029      C1030   1.403       .  A
C1029      C1034   1.394       .  A
C1029      H1036   1.084       .  S
C1030      C1031   1.409       .  A
C1031      C1032   1.408       .  A
C1031      F1038   1.357       .  S
C1032      C1033   1.407       .  A
C1032      H1037   1.084       .  S
C1033      C1034   1.406       .  A
C1034      F1035   1.357       .  S
C1039      C1040   1.407       .  A
C1039      C1044   1.403       .  A
C1039      H1046   1.082       .  S
C1040      C1041   1.416       .  A
C1041      C1042   1.406       .  A
C1041      F1048   1.357       .  S
C1042      C1043   1.400       .  A
C1042      H1047   1.082       .  S
C1043      C1044   1.406       .  A
C1044      F1045   1.358       .  S
C1049      C1050   1.409       .  A
C1049      C1054   1.415       .  A
C1049      H1056   1.083       .  S
C1050      C1051   1.408       .  A
C1051      C1052   1.397       .  A
C1051      F1058   1.358       .  S
C1052      C1053   1.403       .  A
C1052      H1057   1.084       .  S
C1053      C1054   1.413       .  A
C1054      F1055   1.357       .  S
C1059      C1060   1.410       .  A
C1059      C1064   1.399       .  A
C1059      H1066   1.084       .  S
C1060      C1061   1.407       .  A
C1061      C1062   1.398   1_455  A
C1061      F1068   1.357   1_455  S
C1062      C1063   1.404       .  A
C1062      H1067   1.084       .  S
C1063      C1064   1.404   1_655  A
C1064      F1065   1.358       .  S
C1069      C1070   1.404       .  A
C1069      H1076   1.083       .  S
C1070      C1071   1.399       .  A
C1071      F1078   1.358       .  S
C1072      C1073   1.405       .  A
C1072      H1077   1.084       .  S
C1073      C1074   1.407       .  A
C1074      F1075   1.357       .  S
C1079      C1080   1.403       .  A
C1079      C1084   1.392       .  A
C1079      H1086   1.085       .  S
C1080      C1081   1.407       .  A
C1081      C1082   1.407       .  A
C1081      F1088   1.357       .  S
C1082      C1083   1.408       .  A
C1082      H1087   1.085       .  S
C1083      C1084   1.405       .  A
C1084      F1085   1.357       .  S
C1089      C1090   1.412       .  A
C1089      H1096   1.083       .  S
C1091      C1508   1.407   1_444  A
C1091      F1514   1.357   1_554  S
C1092      C1507   1.406   1_565  A
C1092      C1509   1.411       .  A
C1092      H1097   1.083       .  S
C1093      C1335   1.508   1_554  S
C1093      C1508   1.411   1_554  A
C1093      C1094   1.412   1_655  A
C1094      F1095   1.357       .  S
F1098      C1507   1.357       .  S
C1099      C1104   1.389       .  A
C1099      H1106   1.084       .  S
C1100      C1101   1.412       .  A
C1101      C1102   1.402   1_565  A
C1101      F1108   1.357       .  S
C1102      H1107   1.083       .  S
C1103      C1104   1.400       .  A
C1104      F1105   1.358       .  S
C1109      C1110   1.400       .  A
C1109      C1114   1.384       .  A
C1109      H1116   1.084       .  S
C1110      C1111   1.405       .  A
C1111      C1112   1.406       .  A
C1111      F1118   1.357       .  S
C1112      C1113   1.408       .  A
C1112      H1117   1.083       .  S
C1113      C1114   1.406       .  A
C1114      F1115   1.359       .  S
C1119      C1120   1.411       .  A
C1119      H1126   1.083       .  S
C1120      C1121   1.410       .  A
C1121      C1122   1.406   1_455  A
C1121      F1128   1.357       .  S
C1122      H1127   1.083       .  S
C1123      C1124   1.409   1_655  A
C1124      F1125   1.357   1_455  S
C1129      C1130   1.401   1_455  A
C1129      C1134   1.400       .  A
C1129      H1136   1.083       .  S
C1130      C1131   1.408       .  A
C1131      C1132   1.392       .  A
C1131      F1138   1.358       .  S
C1132      C1133   1.396   1_655  A
C1132      H1137   1.084       .  S
C1133      C1134   1.405       .  A
C1134      F1135   1.355       .  S
C1139      C1140   1.396       .  A
C1139      C1144   1.386       .  A
C1139      H1146   1.084       .  S
C1140      C1141   1.401       .  A
C1141      C1142   1.403       .  A
C1141      F1148   1.357       .  S
C1142      C1143   1.409       .  A
C1142      H1147   1.083       .  S
C1143      C1144   1.410       .  A
C1144      F1145   1.358       .  S
C1149      C1150   1.406       .  A
C1149      C1154   1.406       .  A
C1150      C1151   1.407       .  A
C1151      C1152   1.383       .  A
C1151      F1158   1.359       .  S
C1152      C1153   1.398       .  A
C1152      H1157   1.084       .  S
C1153      C1154   1.407       .  A
C1154      F1155   1.357       .  S
C1159      C1160   1.409       .  A
C1159      C1164   1.403       .  A
C1159      H1166   1.083       .  S
C1160      C1161   1.409   1_554  A
C1161      C1578   1.407       .  A
C1161      F1584   1.357       .  S
C1162      C1577   1.407       .  A
C1162      C1579   1.410       .  A
C1162      H1167   1.082       .  S
C1163      C1418   1.499   1_554  S
C1163      C1578   1.411   1_554  A
C1163      C1164   1.410       .  A
C1164      F1165   1.357       .  S
F1168      C1577   1.357       .  S
C1169      C1170   1.398       .  A
C1169      C1174   1.386       .  A
C1169      H1176   1.082       .  S
C1170      C1171   1.412       .  A
C1171      C1172   1.406       .  A
C1171      F1178   1.358       .  S
C1172      C1173   1.406       .  A
C1172      H1177   1.083       .  S
C1173      C1174   1.410       .  A
C1174      F1175   1.358       .  S
C1179      C1180   1.406       .  A
C1179      C1184   1.386       .  A
C1179      H1186   1.083       .  S
C1180      C1181   1.407       .  A
C1181      C1182   1.406       .  A
C1181      F1188   1.357       .  S
C1182      C1183   1.411       .  A
C1182      H1187   1.083       .  S
C1183      C1184   1.404       .  A
C1184      F1185   1.356       .  S
C1189      C1190   1.406       .  A
C1189      C1194   1.394       .  A
C1189      H1196   1.084       .  S
C1190      C1191   1.408       .  A
C1191      C1192   1.402       .  A
C1191      F1198   1.358       .  S
C1192      C1193   1.402       .  A
C1192      H1197   1.083       .  S
C1193      C1194   1.399       .  A
C1194      F1195   1.358       .  S
C1199      C1200   1.404       .  A
C1199      C1204   1.389       .  A
C1199      H1206   1.084       .  S
C1200      C1201   1.409       .  A
C1201      C1202   1.403       .  A
C1201      F1208   1.357       .  S
C1202      C1203   1.404       .  A
C1203      C1204   1.405       .  A
C1204      F1205   1.358       .  S
C1209      C1210   1.413       .  A
C1209      C1214   1.409       .  A
C1209      H1216   1.082       .  S
C1210      C1211   1.411       .  A
C1211      C1212   1.410       .  A
C1211      F1218   1.357       .  S
C1212      C1213   1.413       .  A
C1212      H1217   1.082       .  S
C1213      C1214   1.409       .  A
C1214      F1215   1.357       .  S
C1219      C1220   1.411       .  A
C1219      C1224   1.407       .  A
C1219      H1226   1.083       .  S
C1220      C1221   1.403       .  A
C1221      C1222   1.397       .  A
C1221      F1228   1.358       .  S
C1222      C1223   1.409       .  A
C1222      H1227   1.084       .  S
C1223      C1224   1.403       .  A
C1224      F1225   1.357       .  S
C1229      C1230   1.405       .  A
C1229      C1234   1.406       .  A
C1229      H1236   1.083       .  S
C1230      C1231   1.409       .  A
C1231      C1232   1.394       .  A
C1231      F1238   1.359       .  S
C1232      C1233   1.402       .  A
C1232      H1237   1.084       .  S
C1233      C1234   1.407       .  A
C1234      F1235   1.357       .  S
C1239      C1240   1.396       .  A
C1239      C1244   1.392       .  A
C1239      H1246   1.084       .  S
C1240      C1241   1.406       .  A
C1241      C1242   1.400       .  A
C1241      F1248   1.356       .  S
C1242      C1243   1.401       .  A
C1242      H1247   1.083       .  S
C1243      C1244   1.408       .  A
C1244      F1245   1.357       .  S
O1249      C1264   1.265       .  A
O1249     Al1257   1.934       .  S
C1250      O1260   1.255       .  A
C1250      O1251   1.257       .  A
C1250      C1649   1.483       .  S
O1251     Al1253   1.920       .  S
O1252      C1254   1.262       .  A
O1252     Al1253   1.873       .  S
Al1253     O1261   1.893       .  S
Al1253     O1263   1.874       .  S
Al1253     O1262   1.785       .  S
C1254      O1267   1.269       .  A
C1254      C1616   1.479       .  S
O1255      C1265   1.259       .  A
O1255     Al1257   1.905       .  S
O1256      C1269   1.262       .  A
O1256     Al1266   1.898       .  S
Al1257     O1270   1.949       .  S
Al1257     O1267   1.947       .  S
Al1257     O1262   1.800       .  S
O1258      C1265   1.256       .  A
O1258     Al1266   1.879       .  S
O1259      C1268   1.263       .  A
O1259     Al1266   1.912       .  S
O1260     Al1266   1.884       .  S
O1261      C1268   1.261       .  A
O1262     Al1266   1.786       .  S
O1263      C1264   1.256       .  A
C1264      C1639   1.483       .  S
C1265      C1659   1.468       .  S
C1268      C1609   1.459       .  S
C1269      O1270   1.271       .  A
C1269      C1629   1.497       .  S
O1271     Al1279   1.920       .  S
C1272      O1282   1.261       .  A
C1272      O1273   1.255       .  A
C1272      C1586   1.472       .  S
O1273     Al1275   1.902       .  S
O1274      C1276   1.264       .  A
O1274     Al1275   1.881       .  S
Al1275     O1283   1.905       .  S
Al1275     O1285   1.861       .  S
Al1275     O1284   1.785       .  S
C1276      O1289   1.268       .  A
C1276      C1569   1.479       .  S
O1277      C1287   1.256       .  A
O1277     Al1279   1.910       .  S
O1278      C1291   1.268       .  A
O1278     Al1288   1.910       .  S
Al1279     O1292   1.939       .  S
Al1279     O1289   1.937       .  S
Al1279     O1284   1.795       .  S
O1280      C1287   1.251       .  A
O1280     Al1288   1.869       .  S
O1281      C1290   1.264       .  A
O1281     Al1288   1.910       .  S
O1282     Al1288   1.912       .  S
O1283      C1290   1.264       .  A
O1284     Al1288   1.778       .  S
C1286      C1596   1.482       .  S
C1287      C1656   1.460       .  S
C1290      C1559   1.482       .  S
C1291      O1292   1.271       .  A
C1291      C1576   1.499       .  S
O1293      C1308   1.262       .  A
O1293     Al1301   1.904       .  S
C1294      O1304   1.260       .  A
C1294      O1295   1.262       .  A
C1294      C1599   1.479       .  S
O1295     Al1297   1.919       .  S
O1296      C1298   1.258       .  A
O1296     Al1297   1.863       .  S
Al1297     O1305   1.884       .  S
Al1297     O1307   1.879       .  S
Al1297     O1306   1.783       .  S
C1298      O1311   1.267       .  A
C1298      C1526   1.471       .  S
O1299      C1309   1.256       .  A
O1299     Al1301   1.908       .  S
O1300      C1313   1.265       .  A
O1300     Al1310   1.896       .  S
Al1301     O1314   1.956       .  S
Al1301     O1311   1.937       .  S
Al1301     O1306   1.789       .  S
O1302      C1309   1.256       .  A
O1302     Al1310   1.888       .  S
O1303      C1312   1.263       .  A
O1303     Al1310   1.912       .  S
O1304     Al1310   1.885       .  S
O1305      C1312   1.257       .  A
O1306     Al1310   1.777       .  S
O1307      C1308   1.257       .  A
C1308      C1589   1.469       .  S
C1309      C1549   1.460       .  S
C1312      C1516   1.475       .  S
C1313      O1314   1.274       .  A
C1313      C1536   1.498       .  S
O1315      C1330   1.265       .  A
C1316      O1326   1.258       .  A
C1316      O1317   1.257       .  A
C1316      C1636   1.485       .  S
O1317     Al1319   1.914       .  S
O1318      C1320   1.259       .  A
O1318     Al1319   1.870       .  S
Al1319     O1327   1.894       .  S
Al1319     O1328   1.792       .  S
C1320      O1333   1.266       .  A
C1320      C1499   1.476       .  S
O1321      C1331   1.259       .  A
O1321     Al1323   1.914       .  S
O1322      C1335   1.264       .  A
O1322     Al1332   1.904       .  S
Al1323     O1336   1.955   1_556  S
Al1323     O1333   1.936       .  S
Al1323     O1328   1.802       .  S
O1324      C1331   1.256       .  A
O1324     Al1332   1.876       .  S
O1325      C1334   1.260       .  A
O1325     Al1332   1.904       .  S
O1326     Al1332   1.895       .  S
O1327      C1334   1.259       .  A
O1328     Al1332   1.784       .  S
O1329      C1330   1.257       .  A
C1330      C1646   1.483       .  S
C1331      C1546   1.474       .  S
C1334      C1486   1.459       .  S
C1335      O1336   1.271   1_556  A
O1337      C1352   1.270       .  A
O1337     Al1345   1.925       .  S
C1338      O1348   1.253       .  A
C1338      O1339   1.261       .  A
C1338      C1459   1.482       .  S
O1339     Al1341   1.937       .  S
O1340      C1342   1.254       .  A
O1340     Al1341   1.863       .  S
Al1341     O1349   1.849       .  S
Al1341     O1351   1.943       .  S
Al1341     O1350   1.776       .  S
C1342      O1355   1.267       .  A
C1342      C1476   1.475       .  S
O1343      C1353   1.260       .  A
O1343     Al1345   1.895       .  S
O1344     Al1354   1.896       .  S
Al1345     O1358   1.951       .  S
Al1345     O1355   1.937       .  S
Al1345     O1350   1.792       .  S
O1346      C1353   1.265       .  A
O1346     Al1354   1.908       .  S
O1347      C1356   1.269       .  A
O1347     Al1354   1.953       .  S
O1348     Al1354   1.897       .  S
O1349      C1356   1.256       .  A
O1350     Al1354   1.782       .  S
O1351      C1352   1.269       .  A
C1352      C1506   1.502       .  S
C1353      C1556   1.462       .  S
C1357      C1466   1.497       .  S
O1359      C1374   1.267       .  A
O1359     Al1367   1.912       .  S
C1360      O1370   1.259       .  A
C1360      O1361   1.262       .  A
C1360      C1449   1.484       .  S
O1361     Al1363   1.916       .  S
O1362      C1364   1.252       .  A
O1362     Al1363   1.868       .  S
Al1363     O1371   1.868       .  S
Al1363     O1373   1.936       .  S
Al1363     O1372   1.772       .  S
C1364      O1377   1.264       .  A
C1364      C1479   1.468       .  S
O1365      C1375   1.263       .  A
O1365     Al1367   1.900       .  S
O1366      C1379   1.261       .  A
O1366     Al1376   1.894       .  S
Al1367     O1380   1.934       .  S
Al1367     O1377   1.934       .  S
Al1367     O1372   1.789       .  S
O1368      C1375   1.265       .  A
O1368     Al1376   1.913       .  S
O1369      C1378   1.265       .  A
O1369     Al1376   1.931       .  S
O1370     Al1376   1.908       .  S
O1371      C1378   1.258       .  A
O1372     Al1376   1.783       .  S
O1373      C1374   1.269       .  A
C1374      C1539   1.496       .  S
C1375      C1606   1.468       .  S
C1379      O1380   1.265       .  A
C1379      C1436   1.480       .  S
O1381      C1396   1.270       .  A
O1381     Al1389   1.922       .  S
C1382      O1392   1.256       .  A
C1382      O1383   1.263       .  A
C1382      C1469   1.489       .  S
O1383     Al1385   1.940       .  S
O1384      C1386   1.253       .  A
O1384     Al1385   1.872       .  S
Al1385     O1393   1.853       .  S
Al1385     O1395   1.946       .  S
Al1385     O1394   1.775       .  S
C1386      O1399   1.267       .  A
C1386      C1429   1.484       .  S
O1387      C1397   1.264       .  A
O1387     Al1389   1.898       .  S
O1388      C1401   1.264       .  A
O1388     Al1398   1.910       .  S
Al1389     O1402   1.939       .  S
Al1389     O1399   1.949       .  S
Al1389     O1394   1.789       .  S
O1390      C1397   1.263       .  A
O1390     Al1398   1.896       .  S
O1391      C1400   1.265       .  A
O1391     Al1398   1.934       .  S
O1392     Al1398   1.905       .  S
O1393      C1400   1.254       .  A
O1394     Al1398   1.783       .  S
O1395      C1396   1.272       .  A
C1396      C1626   1.505       .  S
C1397      C1519   1.457       .  S
C1400      C1529   1.473       .  S
C1401      O1402   1.266       .  A
C1401      C1456   1.500       .  S
C1404      O1414   1.260       .  A
C1404      O1405   1.263       .  A
C1404      C1439   1.486       .  S
O1405     Al1407   1.915       .  S
O1406      C1408   1.252       .  A
O1406     Al1407   1.869       .  S
Al1407     O1415   1.864       .  S
Al1407     O1417   1.937       .  S
Al1407     O1416   1.774       .  S
C1408      O1421   1.266       .  A
C1408      C1426   1.477       .  S
O1409      C1419   1.264   1_556  A
O1409     Al1411   1.906   1_556  S
O1410      C1423   1.262       .  A
Al1411     O1421   1.945   1_554  S
Al1411     O1416   1.790   1_554  S
O1412      C1419   1.264       .  A
O1412     Al1420   1.906   1_554  S
O1413      C1422   1.264       .  A
O1413     Al1420   1.934       .  S
O1414     Al1420   1.909       .  S
O1415      C1422   1.257       .  A
O1416     Al1420   1.788       .  S
O1417      C1418   1.268       .  A
C1419      C1489   1.471       .  S
C1422      C1496   1.473       .  S
C1423      O1424   1.264       .  A
C1423      C1446   1.485       .  S
C1425      C1426   1.408       .  A
C1425      C1430   1.398       .  A
C1425      H1432   1.083       .  S
C1426      C1427   1.402       .  A
C1427      C1428   1.398       .  A
C1427      F1434   1.358       .  S
C1428      C1429   1.411       .  A
C1428      H1433   1.083       .  S
C1429      C1430   1.405       .  A
C1430      F1431   1.357       .  S
C1435      C1436   1.402       .  A
C1435      C1440   1.395       .  A
C1435      H1442   1.084       .  S
C1436      C1437   1.407       .  A
C1437      C1438   1.409       .  A
C1437      F1444   1.357       .  S
C1438      C1439   1.408       .  A
C1438      H1443   1.083       .  S
C1439      C1440   1.407       .  A
C1440      F1441   1.357       .  S
C1445      C1446   1.405       .  A
C1445      C1450   1.397       .  A
C1445      H1452   1.084       .  S
C1446      C1447   1.409       .  A
C1447      C1448   1.408       .  A
C1447      F1454   1.357       .  S
C1448      C1449   1.407       .  A
C1448      H1453   1.083       .  S
C1449      C1450   1.407       .  A
C1450      F1451   1.357       .  S
C1455      C1456   1.408       .  A
C1455      C1460   1.403       .  A
C1455      H1462   1.082       .  S
C1456      C1457   1.416       .  A
C1457      C1458   1.408       .  A
C1457      F1464   1.357       .  S
C1458      C1459   1.402       .  A
C1458      H1463   1.082       .  S
C1459      C1460   1.404       .  A
C1460      F1461   1.358       .  S
C1465      C1466   1.411       .  A
C1465      C1470   1.408       .  A
C1465      H1472   1.084       .  S
C1466      C1467   1.409       .  A
C1467      C1468   1.406       .  A
C1467      F1474   1.357       .  S
C1468      C1469   1.406       .  A
C1468      H1473   1.084       .  S
C1469      C1470   1.405       .  A
C1470      F1471   1.357       .  S
C1475      C1476   1.409       .  A
C1475      C1480   1.394       .  A
C1475      H1482   1.083       .  S
C1476      C1477   1.404   1_455  A
C1477      C1478   1.394       .  A
C1477      F1484   1.357       .  S
C1478      C1479   1.406       .  A
C1478      H1483   1.082       .  S
C1479      C1480   1.402   1_655  A
C1480      F1481   1.358       .  S
C1485      C1486   1.401       .  A
C1485      H1492   1.083       .  S
C1486      C1487   1.399   1_556  A
C1487      F1494   1.358       .  S
C1488      C1489   1.406       .  A
C1488      H1493   1.084       .  S
C1489      C1490   1.405   1_554  A
C1490      F1491   1.357       .  S
C1495      C1496   1.401       .  A
C1495      C1500   1.388       .  A
C1495      H1502   1.085       .  S
C1496      C1497   1.407       .  A
C1497      C1498   1.405       .  A
C1497      F1504   1.357   1_556  S
C1498      C1499   1.407       .  A
C1498      H1503   1.085   1_556  S
C1499      C1500   1.406       .  A
C1500      F1501   1.358       .  S
C1505      C1506   1.410       .  A
C1505      H1512   1.083       .  S
C1508      H1513   1.083       .  S
C1509      C1510   1.413       .  A
C1510      F1511   1.357   1_655  S
C1515      C1520   1.381       .  A
C1515      H1522   1.084       .  S
C1516      C1517   1.412       .  A
C1517      C1518   1.399   1_565  A
C1517      F1524   1.357       .  S
C1518      H1523   1.083       .  S
C1519      C1520   1.401       .  A
C1520      F1521   1.356       .  S
C1525      C1526   1.402       .  A
C1525      C1530   1.386       .  A
C1525      H1532   1.084       .  S
C1526      C1527   1.406       .  A
C1527      C1528   1.405       .  A
C1527      F1534   1.357       .  S
C1528      C1529   1.407       .  A
C1528      H1533   1.083       .  S
C1529      C1530   1.407       .  A
C1530      F1531   1.359       .  S
C1535      C1536   1.410       .  A
C1535      H1542   1.083       .  S
C1536      C1537   1.409       .  A
C1537      C1538   1.407   1_455  A
C1537      F1544   1.357       .  S
C1538      H1543   1.083       .  S
C1539      C1540   1.410       .  A
C1540      F1541   1.357       .  S
C1545      C1546   1.404   1_455  A
C1545      C1550   1.404       .  A
C1545      H1552   1.083       .  S
C1546      C1547   1.409       .  A
C1547      C1548   1.390       .  A
C1547      F1554   1.358       .  S
C1548      C1549   1.396   1_655  A
C1548      H1553   1.084       .  S
C1549      C1550   1.406       .  A
C1550      F1551   1.357       .  S
C1555      C1556   1.397       .  A
C1555      C1560   1.388       .  A
C1555      H1562   1.084       .  S
C1556      C1557   1.403       .  A
C1557      C1558   1.404       .  A
C1557      F1564   1.357       .  S
C1558      C1559   1.409       .  A
C1558      H1563   1.083       .  S
C1559      C1560   1.411       .  A
C1560      F1561   1.358       .  S
C1565      C1566   1.404       .  A
C1565      C1570   1.408       .  A
C1566      C1567   1.406       .  A
C1567      C1568   1.388       .  A
C1567      F1574   1.359       .  S
C1568      C1569   1.401       .  A
C1568      H1573   1.084       .  S
C1569      C1570   1.411       .  A
C1570      F1571   1.357       .  S
C1575      C1576   1.408       .  A
C1575      C1580   1.405       .  A
C1575      H1582   1.082       .  S
C1576      C1577   1.411       .  A
C1578      H1583   1.082       .  S
C1579      C1580   1.410       .  A
C1580      F1581   1.357       .  S
C1585      C1586   1.400       .  A
C1585      C1590   1.394       .  A
C1585      H1592   1.076       .  S
C1586      C1587   1.407       .  A
C1587      C1588   1.399       .  A
C1587      F1594   1.357       .  S
C1588      C1589   1.403       .  A
C1588      H1593   1.083       .  S
C1589      C1590   1.406       .  A
C1590      F1591   1.358       .  S
C1595      C1596   1.409       .  A
C1595      C1600   1.387       .  A
C1595      H1602   1.083       .  S
C1596      C1597   1.406       .  A
C1597      C1598   1.404       .  A
C1597      F1604   1.357       .  S
C1598      C1599   1.410       .  A
C1598      H1603   1.083       .  S
C1599      C1600   1.404       .  A
C1600      F1601   1.358       .  S
C1605      C1606   1.404       .  A
C1605      C1610   1.394       .  A
C1605      H1612   1.084       .  S
C1606      C1607   1.406       .  A
C1607      C1608   1.399       .  A
C1607      F1614   1.358       .  S
C1608      C1609   1.402       .  A
C1608      H1613   1.084       .  S
C1609      C1610   1.399       .  A
C1610      F1611   1.358       .  S
C1615      C1616   1.402       .  A
C1615      C1620   1.388       .  A
C1615      H1622   1.084       .  S
C1616      C1617   1.411       .  A
C1617      C1618   1.409       .  A
C1617      F1624   1.357       .  S
C1618      C1619   1.407       .  A
C1619      C1620   1.405       .  A
C1620      F1621   1.358       .  S
C1625      C1626   1.412       .  A
C1625      C1630   1.408       .  A
C1625      H1632   1.082       .  S
C1626      C1627   1.412       .  A
C1627      C1628   1.407       .  A
C1627      F1634   1.357       .  S
C1628      C1629   1.410       .  A
C1628      H1633   1.083       .  S
C1629      C1630   1.406       .  A
C1630      F1631   1.357       .  S
C1635      C1636   1.414       .  A
C1635      C1640   1.411       .  A
C1635      H1642   1.083       .  S
C1636      C1637   1.401       .  A
C1637      C1638   1.388       .  A
C1637      F1644   1.357       .  S
C1638      C1639   1.407       .  A
C1638      H1643   1.084       .  S
C1639      C1640   1.406       .  A
C1640      F1641   1.357       .  S
C1645      C1646   1.404       .  A
C1645      C1650   1.409       .  A
C1645      H1652   1.082       .  S
C1646      C1647   1.412       .  A
C1647      C1648   1.389       .  A
C1647      F1654   1.359       .  S
C1648      C1649   1.400       .  A
C1648      H1653   1.083       .  S
C1649      C1650   1.413       .  A
C1650      F1651   1.357       .  S
C1655      C1656   1.397       .  A
C1655      C1660   1.395       .  A
C1655      H1662   1.084       .  S
C1656      C1657   1.405       .  A
C1657      C1658   1.397       .  A
C1657      F1664   1.353       .  S
C1658      C1659   1.398       .  A
C1658      H1663   1.084       .  S
C1659      C1660   1.409       .  A
C1660      F1661   1.357       .  S
