geometry optimzed in LAMMPS
_audit_creation_date              2020-12-01 
_audit_creation_method            'lammps2cif' 
_symmetry_space_group_name_H-M    'P1' 
_symmetry_Int_Tables_number       1 
_symmetry_cell_setting            triclinic 
loop_ 
_symmetry_equiv_pos_as_xyz 
  x,y,z 
_cell_length_a                    41.22085198 
_cell_length_b                    41.28393058666577 
_cell_length_c                    39.13115160390316 
_cell_angle_alpha                 89.99146632958912 
_cell_angle_beta                  89.79618297106731 
_cell_angle_gamma                 119.76706271644899 
loop_ 
_atom_site_label 
_atom_site_type_symbol 
_atom_site_fract_x 
_atom_site_fract_y 
_atom_site_fract_z 
_atom_site_charge 
C1          C  0.47843183  0.97751145  0.01212312     0.03200
C2          C  0.51578720  0.98614347  0.01836244     0.03200
C3          C  0.54466139  0.01273298  0.99773245    -0.17300
C4          C  0.53719747  0.02990194  0.97022275     0.03200
C5          C  0.49985499  0.02077092  0.96352679     0.03200
C6          C  0.47088841  0.99456311  0.98451428    -0.17300
H7          H  0.44223155  0.98714759  0.97923491     0.05200
H8          H  0.57326933  0.02008534  0.00321532     0.05200
O9          O  0.52271622  0.73122492  0.28963476    -0.70800
O10         O  0.50195334  0.77963637  0.21770348    -0.71000
O11         O  0.51267233  0.72060137  0.22159656    -0.70900
O12         O  0.51260411  0.79058483  0.28546248    -0.70900
O13         O  0.57202702  0.82680570  0.27624174    -0.70900
O14         O  0.57232016  0.75695177  0.21379508    -0.70900
O15         O  0.56141672  0.81585371  0.20876388    -0.70800
O16         O  0.58232424  0.76734563  0.28155417    -0.71000
V17         V  0.51364392  0.75617631  0.25343948     1.35200
V18         V  0.57085679  0.79100341  0.24529112     1.35200
C19         C  0.55590596  0.74099077  0.29802661     0.78400
C20         C  0.52794530  0.80598848  0.20105362     0.78500
C21         C  0.54272389  0.72711189  0.20679312     0.78300
C22         C  0.54245559  0.82089807  0.29128921     0.78300
O23         O  0.40882070  0.17736277  0.77722660    -0.70800
O24         O  0.42418251  0.25210016  0.71094952    -0.71000
O25         O  0.41815560  0.18386059  0.70893143    -0.70900
O26         O  0.41399986  0.24499399  0.77897214    -0.70900
O27         O  0.47378273  0.26981963  0.78708588    -0.70900
O28         O  0.47842336  0.21046641  0.71450397    -0.70900
O29         O  0.48402944  0.27819710  0.71930747    -0.70800
O30         O  0.46895843  0.20254417  0.78249935    -0.71000
V31         V  0.41743485  0.21504793  0.74411294     1.35200
V32         V  0.47511012  0.23972837  0.75068516     1.35200
C33         C  0.43656271  0.17722005  0.79094878     0.78400
C34         C  0.45698132  0.27837578  0.70450654     0.78500
C35         C  0.44880373  0.18661286  0.69973448     0.78300
C36         C  0.44295664  0.26770551  0.79499196     0.78300
O37         O  0.78498194  0.17945010  0.71632147    -0.70800
O38         O  0.84555391  0.24480357  0.78702503    -0.71000
O39         O  0.78292951  0.17788795  0.78506264    -0.70900
O40         O  0.84778502  0.24625818  0.71816411    -0.70900
O41         O  0.81485564  0.27414480  0.71804321    -0.70900
O42         O  0.74936485  0.20509426  0.78449838    -0.70900
O43         O  0.81201984  0.27203057  0.78675085    -0.70800
O44         O  0.75209468  0.20735917  0.71552416    -0.71000
V45         V  0.81467114  0.21265657  0.75162784     1.35200
V46         V  0.78269444  0.23908713  0.75120957     1.35200
C47         C  0.75840313  0.18247473  0.70368260     0.78400
C48         C  0.83899555  0.26944163  0.79905117     0.78500
C49         C  0.75524147  0.17991841  0.79631274     0.78300
C50         C  0.84243122  0.27183237  0.70672189     0.78300
O51         O  0.24254695  0.72501226  0.22000766    -0.70800
O52         O  0.29956045  0.79817987  0.28680085    -0.71000
O53         O  0.24194330  0.72765050  0.28873143    -0.70900
O54         O  0.30004067  0.79532639  0.21811889    -0.70900
O55         O  0.26203775  0.81751727  0.21738521    -0.70900
O56         O  0.20181743  0.74712540  0.28572642    -0.70900
O57         O  0.25952308  0.81786479  0.28592331    -0.70800
O58         O  0.20427893  0.74677091  0.21685556    -0.71000
V59         V  0.27022344  0.76191827  0.25340409     1.35200
V60         V  0.23263709  0.78188687  0.25149724     1.35200
C61         C  0.21395262  0.72364212  0.20679419     0.78400
C62         C  0.28926463  0.82053151  0.29773760     0.78500
C63         C  0.21186212  0.72556946  0.29907542     0.78300
C64         C  0.29121929  0.81832943  0.20606741     0.78300
C65         C  0.98199827  0.52234919  0.97545135     0.03200
C66         C  0.97914009  0.48662606  0.97602595     0.03200
C67         C  0.99546735  0.47756204  0.00342958    -0.17300
C68         C  0.01499077  0.50344781  0.02968432     0.03200
C69         C  0.01865059  0.53946082  0.02809440     0.03200
C70         C  0.00184092  0.54811486  0.00126504    -0.17300
H71         H  0.00429754  0.57552041  0.00042684     0.05200
H72         H  0.99311182  0.45030469  0.00429307     0.05200
C73         C  0.95934804  0.50670869  0.51080446     0.03200
C74         C  0.96578911  0.47642230  0.51595261     0.03200
C75         C  0.99336756  0.47423094  0.49645079    -0.17300
C76         C  0.01476378  0.50175668  0.47203057     0.03200
C77         C  0.00836020  0.53213831  0.46703672     0.03200
C78         C  0.98006002  0.53363700  0.48584719    -0.17300
H79         H  0.97473193  0.55653184  0.48160171     0.05200
H80         H  0.99789251  0.45073577  0.49995199     0.05200
O81         O  0.15602332  0.39551791  0.28537909    -0.70800
O82         O  0.21876999  0.39595754  0.21389925    -0.71000
O83         O  0.22183389  0.39667432  0.28255080    -0.70900
O84         O  0.15322900  0.39507848  0.21664896    -0.70900
O85         O  0.18281325  0.45567958  0.21623254    -0.70900
O86         O  0.25120740  0.45727846  0.28215580    -0.70900
O87         O  0.24835605  0.45658246  0.21340149    -0.70800
O88         O  0.18538405  0.45612746  0.28488371    -0.71000
V89         V  0.18805324  0.39699730  0.24963720     1.35200
V90         V  0.21637233  0.45523916  0.24919110     1.35200
C91         C  0.15984308  0.42568475  0.29719541     0.78400
C92         C  0.24414462  0.42626101  0.20142555     0.78500
C93         C  0.24815457  0.42722547  0.29362937     0.78300
C94         C  0.15648001  0.42516794  0.20508225     0.78300
O95         O  0.75059796  0.57937976  0.78740202    -0.70800
O96         O  0.81327633  0.57655421  0.71758246    -0.71000
O97         O  0.75341288  0.58701506  0.71882039    -0.70900
O98         O  0.80973659  0.56837423  0.78580374    -0.70900
O99         O  0.77329047  0.50879460  0.77859602    -0.70900
O100        O  0.71548173  0.52735538  0.71493672    -0.70900
O101        O  0.77514379  0.51728558  0.71043243    -0.70800
O102        O  0.71427215  0.51942082  0.78310358    -0.71000
V103        V  0.78102256  0.57672407  0.75222281     1.35200
V104        V  0.74527186  0.51941514  0.74682702     1.35200
C105        C  0.72216984  0.54989120  0.79759233     0.78400
C106        C  0.80518480  0.54653466  0.70232181     0.78500
C107        C  0.72436646  0.56012157  0.70587879     0.78300
C108        C  0.80101234  0.53514480  0.79333158     0.78300
C109        C  0.46387402  0.48670739  0.03283981     0.03200
C110        C  0.49417365  0.52245851  0.02513993     0.03200
C111        C  0.51865171  0.52695118  0.99821532    -0.17300
C112        C  0.51318855  0.49614052  0.97861305     0.03200
C113        C  0.48327065  0.46027920  0.98676896     0.03200
C114        C  0.45914322  0.45576768  0.01391811    -0.17300
H115        H  0.43668168  0.42806462  0.02028953     0.05200
H116        H  0.54111619  0.55462901  0.99177455     0.05200
C117        C  0.46550491  0.49755780  0.47051259     0.03200
C118        C  0.49770937  0.53269569  0.47646451     0.03200
C119        C  0.52334758  0.53596164  0.50182170    -0.17300
C120        C  0.51697676  0.50517516  0.52218450     0.03200
C121        C  0.48356670  0.47057715  0.51756234     0.03200
C122        C  0.45901521  0.46699951  0.49116254    -0.17300
H123        H  0.43470372  0.43992932  0.48670066     0.05200
H124        H  0.54843553  0.56258560  0.50561784     0.05200
C125        C  0.49049826  0.98976400  0.47818837     0.03200
C126        C  0.52533033  0.99087331  0.47802931     0.03200
C127        C  0.55480869  0.01739153  0.49798255    -0.17300
C128        C  0.55067087  0.04382730  0.51750774     0.03200
C129        C  0.51604869  0.04340990  0.51656190     0.03200
C130        C  0.48625329  0.01623046  0.49721915    -0.17300
H131        H  0.45955517  0.01541452  0.49733862     0.05200
H132        H  0.58132911  0.01790843  0.49742847     0.05200
C133        C  0.64524849  0.52215578  0.86645657     0.19600
C134        C  0.60816372  0.49308146  0.86901297    -0.18400
C135        C  0.58502565  0.49226374  0.89555623    -0.10700
C136        C  0.59845137  0.52075799  0.92033308     0.21900
C137        C  0.63586934  0.54936605  0.91831000    -0.20100
C138        C  0.65906687  0.55018739  0.89165652    -0.10900
C139        C  0.57476729  0.52027389  0.94944156    -0.15100
C140        C  0.53721206  0.50118393  0.94845560    -0.28900
C141        C  0.66877759  0.52126644  0.83792770    -0.03200
C142        C  0.69939373  0.55167063  0.82600171    -0.39700
H143        H  0.59700721  0.47075211  0.85038243     0.13000
H144        H  0.55699780  0.46866600  0.89685990     0.12700
H145        H  0.64721355  0.57116697  0.93745455     0.12100
H146        H  0.68787672  0.57236117  0.89135379     0.12300
H147        H  0.58857309  0.53536528  0.97253764     0.15100
H148        H  0.52318252  0.48686611  0.92528914     0.13900
H149        H  0.65974587  0.49460372  0.82547211     0.11500
H150        H  0.70807007  0.57890451  0.83694838     0.13600
C151        C  0.64361225  0.53944723  0.64291518     0.19600
C152        C  0.61335394  0.50554987  0.63185558    -0.18400
C153        C  0.58870281  0.50471938  0.60706982    -0.10700
C154        C  0.59361772  0.53794863  0.59232671     0.21900
C155        C  0.62323539  0.57206330  0.60400262    -0.20100
C156        C  0.64815353  0.57290870  0.62890945    -0.10900
C157        C  0.56737924  0.53774854  0.56595153    -0.15100
C158        C  0.54636985  0.50789114  0.54601170    -0.28900
C159        C  0.66898918  0.53758900  0.66901328    -0.03200
C160        C  0.70114982  0.56648899  0.68073876    -0.39700
H161        H  0.60867256  0.47931500  0.64245063     0.13000
H162        H  0.56550212  0.47786604  0.60009777     0.12700
H163        H  0.62730580  0.59814363  0.59358422     0.12100
H164        H  0.67064733  0.59970922  0.63699802     0.12300
H165        H  0.56486890  0.56260484  0.56338723     0.15100
H166        H  0.54942625  0.48335665  0.54798034     0.13900
H167        H  0.66074526  0.50990923  0.67881962     0.11500
H168        H  0.71082428  0.59473695  0.67194035     0.13600
C169        C  0.37396799  0.45970256  0.08470229     0.19600
C170        C  0.33795693  0.42853900  0.08683594    -0.18400
C171        C  0.31224729  0.42720877  0.11104406    -0.10700
C172        C  0.32210088  0.45726779  0.13356077     0.21900
C173        C  0.35761385  0.48894307  0.13056246    -0.20100
C174        C  0.38329747  0.49023683  0.10647529    -0.10900
C175        C  0.29615387  0.45704896  0.16011832    -0.15100
C176        C  0.26810874  0.42562454  0.17367427    -0.28900
C177        C  0.40042140  0.46034559  0.05842347    -0.03200
C178        C  0.43769944  0.48213010  0.06102712    -0.39700
H179        H  0.32974751  0.40506515  0.06980603     0.13000
H180        H  0.28465032  0.40286554  0.11164737     0.12700
H181        H  0.36564424  0.51275716  0.14710762     0.12100
H182        H  0.41006797  0.51554340  0.10466926     0.12300
H183        H  0.30166503  0.48383839  0.17024447     0.15100
H184        H  0.26310228  0.39850394  0.16518501     0.13900
H185        H  0.38877205  0.44289921  0.03597089     0.11500
H186        H  0.44955177  0.49918698  0.08357908     0.13600
C187        C  0.37806002  0.46601292  0.41267356     0.19600
C188        C  0.34494137  0.43224851  0.40694891    -0.18400
C189        C  0.32024842  0.42921971  0.38099699    -0.10700
C190        C  0.32802164  0.46016463  0.36022111     0.21900
C191        C  0.36087828  0.49410986  0.36639672    -0.20100
C192        C  0.38563515  0.49706713  0.39221650    -0.10900
C193        C  0.30201788  0.45890744  0.33307174    -0.15100
C194        C  0.27418267  0.42720866  0.31962211    -0.28900
C195        C  0.40300745  0.46847572  0.44127451    -0.03200
C196        C  0.44007515  0.49274807  0.44133901    -0.39700
H197        H  0.33809401  0.40809374  0.42269846     0.13000
H198        H  0.29480628  0.40281577  0.37803005     0.12700
H199        H  0.36734681  0.51859666  0.35128819     0.12100
H200        H  0.41012760  0.52398114  0.39660482     0.12300
H201        H  0.30625591  0.48546977  0.32350458     0.15100
H202        H  0.26995831  0.40025510  0.32764996     0.13900
H203        H  0.39021667  0.44976850  0.46283398     0.11500
H204        H  0.45251686  0.51054093  0.41917341     0.13600
C205        C  0.11092475  0.45769478  0.36289258     0.19600
C206        C  0.11646613  0.49288254  0.37228860    -0.18400
C207        C  0.09267017  0.49632696  0.39563182    -0.10700
C208        C  0.06270797  0.46446988  0.41068805     0.21900
C209        C  0.05703343  0.42920191  0.40132398    -0.20100
C210        C  0.08085195  0.42573118  0.37781527    -0.10900
C211        C  0.03578068  0.46691225  0.43465220    -0.15100
C212        C  0.04323389  0.49836796  0.45135323    -0.28900
C213        C  0.13674010  0.45627569  0.33687378    -0.03200
C214        C  0.13446782  0.42482685  0.32439558    -0.39700
H215        H  0.13906935  0.51800143  0.36105736     0.13000
H216        H  0.09748784  0.52407131  0.40086501     0.12700
H217        H  0.03395577  0.40416490  0.41218526     0.12100
H218        H  0.07515520  0.39793947  0.37147806     0.12300
H219        H  0.00852810  0.44217568  0.43806303     0.15100
H220        H  0.07048802  0.52287837  0.44890220     0.13900
H221        H  0.15854213  0.48285219  0.32687178     0.11500
H222        H  0.11327653  0.39761409  0.33340768     0.13600
C223        C  0.85101144  0.51679709  0.63208780     0.19600
C224        C  0.84007346  0.50042829  0.59966536    -0.18400
C225        C  0.86613828  0.49906702  0.57743786    -0.10700
C226        C  0.90349219  0.51336039  0.58762232     0.21900
C227        C  0.91410777  0.52877244  0.62039125    -0.20100
C228        C  0.88830991  0.53085497  0.64227510    -0.10900
C229        C  0.93141882  0.51034577  0.56577064    -0.15100
C230        C  0.93128265  0.51111217  0.53134767    -0.28900
C231        C  0.82289973  0.51743228  0.65559487    -0.03200
C232        C  0.83154688  0.54618946  0.67683287    -0.39700
H233        H  0.81136518  0.48885116  0.59149171     0.13000
H234        H  0.85680370  0.48594657  0.55273157     0.12700
H235        H  0.94251212  0.53928114  0.62907704     0.12100
H236        H  0.89736321  0.54261930  0.66750479     0.12300
H237        H  0.95371185  0.50832515  0.57859646     0.15100
H238        H  0.91170858  0.51697416  0.51800336     0.13900
H239        H  0.79441919  0.49421764  0.65486975     0.11500
H240        H  0.85929550  0.57059167  0.67573517     0.13600
C241        C  0.10814863  0.45768139  0.13952459     0.19600
C242        C  0.10809964  0.49139110  0.13499756    -0.18400
C243        C  0.08698621  0.49530672  0.10916382    -0.10700
C244        C  0.06535251  0.46551084  0.08697331     0.21900
C245        C  0.06561534  0.43186257  0.09113674    -0.20100
C246        C  0.08656842  0.42780462  0.11726660    -0.11500
C247        C  0.04473251  0.47005077  0.05788845    -0.15100
C248        C  0.03012384  0.49285506  0.05962403    -0.28900
C249        C  0.13275012  0.45602861  0.16650723    -0.03200
C250        C  0.13025123  0.42439379  0.17888242    -0.39700
H251        H  0.12484995  0.51505539  0.15133155     0.13000
H252        H  0.08866283  0.52213893  0.10599828     0.12700
H253        H  0.04972729  0.40873119  0.07398596     0.12100
H254        H  0.08651484  0.40167034  0.11918769     0.12300
H255        H  0.04296544  0.45539974  0.03434340     0.15100
H256        H  0.03128038  0.50623360  0.08380271     0.13900
H257        H  0.15388537  0.48249733  0.17705704     0.11500
H258        H  0.10871281  0.39735985  0.16995661     0.13600
C259        C  0.87208077  0.54180087  0.86140425     0.19600
C260        C  0.91005120  0.56643658  0.86784935    -0.18400
C261        C  0.92934720  0.55793103  0.89245777    -0.10700
C262        C  0.91081509  0.52460012  0.91160744     0.21900
C263        C  0.87274966  0.50020895  0.90528745    -0.20100
C264        C  0.85355680  0.50867381  0.88069910    -0.10900
C265        C  0.92949547  0.51364498  0.93819625    -0.15100
C266        C  0.96530535  0.53464699  0.94818358    -0.28900
C267        C  0.85234965  0.55182716  0.83517295    -0.03200
C268        C  0.82165619  0.52606332  0.81882430    -0.39700
H269        H  0.92496153  0.59224099  0.85353598     0.13000
H270        H  0.95864680  0.57761464  0.89603045     0.12700
H271        H  0.85760911  0.47445207  0.91963146     0.12100
H272        H  0.82402872  0.48944060  0.87747054     0.12300
H273        H  0.91260505  0.48679334  0.95062891     0.15100
H274        H  0.98239528  0.56271553  0.93843854     0.13900
H275        H  0.86396742  0.58109056  0.82849669     0.11500
H276        H  0.81105205  0.49662676  0.82378749     0.13600
C277        C  0.36637619  0.88187656  0.36266909     0.19600
C278        C  0.39183558  0.87621006  0.38183055    -0.18400
C279        C  0.41509168  0.90251700  0.40582928    -0.10700
C280        C  0.41350275  0.93544160  0.41139679     0.21900
C281        C  0.38846949  0.94145122  0.39180663    -0.20100
C282        C  0.36508095  0.91500367  0.36776649    -0.10900
C283        C  0.43952321  0.96521585  0.43527644    -0.15100
C284        C  0.45813823  0.95904477  0.46029669    -0.28900
C285        C  0.34310664  0.85326806  0.33676898    -0.03200
C286        C  0.31129913  0.84945268  0.32345545    -0.39700
H287        H  0.39398508  0.85134008  0.37803738     0.13000
H288        H  0.43495504  0.89721626  0.41903251     0.12700
H289        H  0.38722758  0.96688745  0.39490656     0.12100
H290        H  0.34679636  0.92113594  0.35277253     0.12300
H291        H  0.44508066  0.99352777  0.43097866     0.15100
H292        H  0.45304637  0.93107235  0.46520329     0.13900
H293        H  0.35215480  0.83370729  0.32899225     0.11500
H294        H  0.30068796  0.86755483  0.33163909     0.13600
C295        C  0.13938449  0.66279278  0.13978502     0.19600
C296        C  0.10119362  0.65076889  0.13608604    -0.18400
C297        C  0.07954991  0.62370861  0.11181046    -0.10700
C298        C  0.09585328  0.60842388  0.09013828     0.21900
C299        C  0.13416731  0.62082122  0.09361383    -0.20100
C300        C  0.15575175  0.64776811  0.11795317    -0.10900
C301        C  0.07405935  0.57882647  0.06440811    -0.15100
C302        C  0.03919165  0.56906565  0.05411587    -0.28900
C303        C  0.16123120  0.69137395  0.16622072    -0.03200
C304        C  0.19291331  0.69553865  0.18019158    -0.39700
H305        H  0.08786664  0.66191471  0.15247789     0.13000
H306        H  0.05005790  0.61457018  0.11071683     0.12700
H307        H  0.14755192  0.60966539  0.07731981     0.12100
H308        H  0.18529232  0.65701706  0.11918529     0.12300
H309        H  0.08769489  0.56475896  0.05282336     0.15100
H310        H  0.02615146  0.58490869  0.06257505     0.13900
H311        H  0.14997268  0.70863237  0.17549679     0.11500
H312        H  0.20362325  0.67731594  0.17264057     0.13600
C313        C  0.08806950  0.61233890  0.41454379     0.19600
C314        C  0.12700766  0.62725537  0.41410321    -0.18400
C315        C  0.14935018  0.65323990  0.38920374    -0.10700
C316        C  0.13324998  0.66508458  0.36396433     0.21900
C317        C  0.09442995  0.65093344  0.36489643    -0.20100
C318        C  0.07202131  0.62477298  0.38973873    -0.10900
C319        C  0.15606710  0.69278760  0.33696954    -0.15100
C320        C  0.18960940  0.69842524  0.32620900    -0.28900
C321        C  0.06575391  0.58437588  0.44152413    -0.03200
C322        C  0.02850736  0.56113536  0.44038765    -0.39700
H323        H  0.14027030  0.61861756  0.43308394     0.13000
H324        H  0.17923820  0.66434071  0.39024193     0.12700
H325        H  0.08131625  0.65996762  0.34613977     0.12100
H326        H  0.04233991  0.61490403  0.38952350     0.12300
H327        H  0.14414964  0.70804446  0.32460771     0.15100
H328        H  0.20106938  0.68201047  0.33687696     0.13900
H329        H  0.08101974  0.58177264  0.46297100     0.11500
H330        H  0.01184674  0.56320946  0.42005589     0.13600
C331        C  0.63601931  0.09172123  0.57916031     0.19600
C332        C  0.65296008  0.07792132  0.60150141    -0.18400
C333        C  0.67775803  0.10069732  0.62683954    -0.10700
C334        C  0.68648074  0.13811408  0.63027486     0.21900
C335        C  0.67038971  0.15221013  0.60734024    -0.20100
C336        C  0.64579907  0.12953907  0.58190223    -0.10900
C337        C  0.71052202  0.16280306  0.65829321    -0.15100
C338        C  0.73547110  0.15727069  0.67581293    -0.28900
C339        C  0.60777007  0.06553016  0.55417612    -0.03200
C340        C  0.58202902  0.07187721  0.53909527    -0.39700
H341        H  0.64618008  0.04903391  0.59998153     0.13000
H342        H  0.68894785  0.08843226  0.64428175     0.12700
H343        H  0.67677452  0.18096841  0.60919001     0.12100
H344        H  0.63468293  0.14198916  0.56461886     0.12300
H345        H  0.70806257  0.18721337  0.66427142     0.15100
H346        H  0.74015316  0.13440599  0.66917600     0.13900
H347        H  0.60620730  0.03873841  0.55042484     0.11500
H348        H  0.58201194  0.09744293  0.54499014     0.13600
C349        C  0.93208170  0.40453877  0.58977901     0.19600
C350        C  0.94329287  0.38050589  0.60406247    -0.18400
C351        C  0.92209447  0.35527041  0.62990578    -0.10700
C352        C  0.88911431  0.35366977  0.64216473     0.21900
C353        C  0.87866608  0.37861022  0.62858351    -0.20100
C354        C  0.89984722  0.40380806  0.60283486    -0.10900
C355        C  0.86490590  0.32707421  0.66918618    -0.15100
C356        C  0.86796218  0.29793444  0.68058714    -0.28900
C357        C  0.95545359  0.43119159  0.56252916    -0.03200
C358        C  0.94177151  0.44595812  0.54002806    -0.39700
H359        H  0.96845807  0.38110424  0.59503914     0.13000
H360        H  0.93205681  0.33753376  0.64017572     0.12700
H361        H  0.85387910  0.37860790  0.63791779     0.12100
H362        H  0.89113239  0.42303953  0.59378750     0.12300
H363        H  0.84275686  0.33119474  0.67963632     0.15100
H364        H  0.88916013  0.29231707  0.67051697     0.13900
H365        H  0.98488095  0.43937547  0.56135939     0.11500
H366        H  0.91232807  0.43755291  0.54065068     0.13600
C367        C  0.92205956  0.39767846  0.92064242     0.19600
C368        C  0.91785642  0.36180290  0.91914052    -0.18400
C369        C  0.89779668  0.33731738  0.89250598    -0.10700
C370        C  0.88100840  0.34808397  0.86697820     0.21900
C371        C  0.88446950  0.38362879  0.86901387    -0.20100
C372        C  0.90483896  0.40821283  0.89537470    -0.10900
C373        C  0.85822393  0.32261467  0.83884590    -0.15100
C374        C  0.86233073  0.29417206  0.82702095    -0.28900
C375        C  0.94264924  0.42274670  0.94976831    -0.03200
C376        C  0.96126729  0.46026166  0.94687088    -0.39700
H377        H  0.93018857  0.35271545  0.93863702     0.13000
H378        H  0.89477786  0.30975148  0.89252387     0.12700
H379        H  0.87128505  0.39243061  0.85010953     0.12100
H380        H  0.90619186  0.43506209  0.89635194     0.12300
H381        H  0.83797037  0.32834817  0.82660631     0.15100
H382        H  0.88369631  0.28907220  0.83755297     0.13900
H383        H  0.94190919  0.40979044  0.97409569     0.11500
H384        H  0.96250251  0.47246295  0.92201926     0.13600
C385        C  0.48080313  0.13783578  0.63428574     0.19600
C386        C  0.51305552  0.14922827  0.61437814    -0.18400
C387        C  0.51509565  0.12506698  0.59050915    -0.10700
C388        C  0.48475096  0.08870183  0.58599966     0.21900
C389        C  0.45268502  0.07712870  0.60626731    -0.20100
C390        C  0.45060984  0.10134992  0.63008137    -0.10900
C391        C  0.48654316  0.06136040  0.56229790    -0.15100
C392        C  0.51081590  0.07128371  0.53606097    -0.28900
C393        C  0.48051215  0.16396800  0.66038196    -0.03200
C394        C  0.44894482  0.16162858  0.67278637    -0.39700
H395        H  0.53695485  0.17689750  0.61750651     0.13000
H396        H  0.54095409  0.13477445  0.57651977     0.12700
H397        H  0.42922871  0.04906588  0.60388835     0.12100
H398        H  0.42574075  0.09093409  0.64574312     0.12300
H399        H  0.46784714  0.03181815  0.56715375     0.15100
H400        H  0.52937460  0.10045498  0.53007287     0.13900
H401        H  0.50727308  0.18633396  0.66921976     0.11500
H402        H  0.42200525  0.14080853  0.66293736     0.13600
C403        C  0.46337509  0.39062950  0.91396084     0.19600
C404        C  0.43776419  0.37668966  0.88699482    -0.18400
C405        C  0.43896530  0.35204076  0.86325024    -0.10700
C406        C  0.46605742  0.34085987  0.86590684     0.21900
C407        C  0.49197808  0.35515674  0.89266493    -0.20100
C408        C  0.49064269  0.37968938  0.91655471    -0.10900
C409        C  0.46914398  0.31593097  0.84026049    -0.15100
C410        C  0.43990741  0.29122845  0.82170091    -0.28900
C411        C  0.46311363  0.41921817  0.93674912    -0.03200
C412        C  0.47816167  0.42694340  0.96811355    -0.39700
H413        H  0.41706410  0.38535698  0.88399037     0.13000
H414        H  0.41936001  0.34283851  0.84229131     0.12700
H415        H  0.51352501  0.34753110  0.89493478     0.12100
H416        H  0.51178558  0.39096447  0.93621095     0.12300
H417        H  0.49610743  0.31753839  0.83698073     0.15100
H418        H  0.41236475  0.28783732  0.82601928     0.13900
H419        H  0.45128140  0.43571035  0.92683658     0.11500
H420        H  0.48858482  0.41007833  0.97978692     0.13600
C421        C  0.44824398  0.34456776  0.63984303     0.19600
C422        C  0.42828827  0.33952152  0.60945332    -0.18400
C423        C  0.43732145  0.36971497  0.58749104    -0.10700
C424        C  0.46616965  0.40577466  0.59585426     0.21900
C425        C  0.48506768  0.41102210  0.62690658    -0.20100
C426        C  0.47645431  0.38081202  0.64855111    -0.10900
C427        C  0.47650019  0.43878727  0.57362376    -0.15100
C428        C  0.47303047  0.43701668  0.53930832    -0.28900
C429        C  0.43877224  0.31188589  0.66235612    -0.03200
C430        C  0.46483196  0.30961765  0.68115496    -0.39700
H431        H  0.40599500  0.31205215  0.60247177     0.13000
H432        H  0.42124608  0.36481161  0.56435622     0.12700
H433        H  0.50680766  0.43859812  0.63435582     0.12100
H434        H  0.49154530  0.38604066  0.67235410     0.12300
H435        H  0.48847814  0.46579930  0.58606159     0.15100
H436        H  0.46038691  0.41009825  0.52668047     0.13900
H437        H  0.41024647  0.28869619  0.66241816     0.11500
H438        H  0.49379086  0.33173055  0.67934361     0.13600
C439        C  0.51902181  0.87399204  0.35887390     0.19600
C440        C  0.50687629  0.86624073  0.39295498    -0.18400
C441        C  0.50985540  0.89470662  0.41445922    -0.10700
C442        C  0.52420663  0.93124828  0.40192216     0.21900
C443        C  0.53518401  0.93869567  0.36755016    -0.20100
C444        C  0.53306418  0.91048708  0.34630187    -0.10900
C445        C  0.52460620  0.96110651  0.42321904    -0.15100
C446        C  0.53121718  0.96421003  0.45706074    -0.28900
C447        C  0.51642193  0.84369000  0.33660460    -0.03200
C448        C  0.54362303  0.84983710  0.31415468    -0.39700
H449        H  0.49547217  0.83822606  0.40302255     0.13000
H450        H  0.49994140  0.88790721  0.44056005     0.12700
H451        H  0.54547550  0.96643820  0.35715097     0.12100
H452        H  0.54170991  0.91705272  0.31985881     0.12300
H453        H  0.51852198  0.98099100  0.41068526     0.15100
H454        H  0.54056027  0.94686368  0.46964245     0.13900
H455        H  0.49289957  0.81566182  0.33994112     0.11500
H456        H  0.56849498  0.87723322  0.31293743     0.13600
C457        C  0.51805381  0.59581893  0.09532261     0.19600
C458        C  0.54812836  0.61569415  0.11757845    -0.18400
C459        C  0.54727092  0.64036348  0.14157590    -0.10700
C460        C  0.51605015  0.64555213  0.14398189     0.21900
C461        C  0.48564937  0.62513366  0.12217211    -0.20100
C462        C  0.48660273  0.60061747  0.09801421    -0.10900
C463        C  0.51385930  0.67104892  0.16962132    -0.15100
C464        C  0.54436470  0.70113532  0.18186941    -0.28900
C465        C  0.51910846  0.56809631  0.07175525    -0.03200
C466        C  0.49827705  0.55563320  0.04338291    -0.39700
H467        H  0.57228747  0.61187765  0.11658708     0.13000
H468        H  0.57071106  0.65452503  0.15872484     0.12700
H469        H  0.46102920  0.62812059  0.12386924     0.12100
H470        H  0.46220549  0.58473952  0.08229934     0.12300
H471        H  0.48636407  0.66582705  0.17751389     0.15100
H472        H  0.57187874  0.70807423  0.17248232     0.13900
H473        H  0.53678815  0.55645270  0.07859924     0.11500
H474        H  0.48071596  0.56689863  0.03529650     0.13600
C475        C  0.53865980  0.62435937  0.42364917     0.19600
C476        C  0.56752502  0.64071216  0.39928491    -0.18400
C477        C  0.56818529  0.66623442  0.37520115    -0.10700
C478        C  0.54004508  0.67613779  0.37531834     0.21900
C479        C  0.51249367  0.66136331  0.40092028    -0.20100
C480        C  0.51194625  0.63610679  0.42497786    -0.10900
C481        C  0.53612023  0.69887875  0.34781445    -0.15100
C482        C  0.56352257  0.72171193  0.32617014    -0.28900
C483        C  0.53594274  0.59390115  0.44612142    -0.03200
C484        C  0.50278122  0.56626461  0.45754773    -0.39700
H485        H  0.58866018  0.63245120  0.39789487     0.13000
H486        H  0.58970936  0.67668017  0.35572325     0.12700
H487        H  0.49072178  0.66879729  0.40189277     0.12100
H488        H  0.49016805  0.62545762  0.44423148     0.12300
H489        H  0.50876330  0.69648102  0.34522312     0.15100
H490        H  0.59175839  0.72662512  0.32908428     0.13900
H491        H  0.56102223  0.59212208  0.45046387     0.11500
H492        H  0.47750008  0.56658716  0.45061990     0.13600
C493        C  0.62712647  0.08315909  0.91525534     0.19600
C494        C  0.64764051  0.07133234  0.89524706    -0.18400
C495        C  0.67287811  0.09487812  0.87037844    -0.10700
C496        C  0.67845954  0.13108897  0.86530116     0.21900
C497        C  0.65875661  0.14322742  0.88602724    -0.20100
C498        C  0.63367701  0.11977843  0.91090218    -0.10900
C499        C  0.70330741  0.15664795  0.83805479    -0.15100
C500        C  0.73082470  0.15336975  0.82276819    -0.28900
C501        C  0.59848801  0.05634240  0.93960666    -0.03200
C502        C  0.56849933  0.05895219  0.94941435    -0.39700
H503        H  0.64328451  0.04334425  0.89814390     0.13000
H504        H  0.68693718  0.08407375  0.85463446     0.12700
H505        H  0.66272049  0.17103638  0.88291280     0.12100
H506        H  0.61957622  0.13059173  0.92659476     0.12300
H507        H  0.69942053  0.17995317  0.83097786     0.15100
H508        H  0.73671311  0.13157837  0.83041069     0.13900
H509        H  0.60031771  0.03197626  0.94718329     0.11500
H510        H  0.56497257  0.08156179  0.93960986     0.13600
C511        C  0.46054476  0.11949554  0.85388231     0.19600
C512        C  0.49298360  0.11684959  0.85788214    -0.18400
C513        C  0.49522472  0.09417519  0.88315053    -0.10700
C514        C  0.46482658  0.07313725  0.90522055     0.21900
C515        C  0.43231346  0.07579605  0.90139810    -0.20100
C516        C  0.43002854  0.09856605  0.87590217    -0.10900
C517        C  0.46748984  0.05057943  0.93382179    -0.15100
C518        C  0.49148580  0.03729709  0.93325374    -0.28900
C519        C  0.46136413  0.14628813  0.82784278    -0.03200
C520        C  0.43159426  0.14837614  0.81637382    -0.39700
H521        H  0.51715127  0.13300692  0.84169383     0.13000
H522        H  0.52142547  0.09438504  0.88593714     0.12700
H523        H  0.40872341  0.06044793  0.91840085     0.12100
H524        H  0.40479939  0.10037040  0.87422540     0.12300
H525        H  0.45035889  0.04612922  0.95640183     0.15100
H526        H  0.50786500  0.04087796  0.91037319     0.13900
H527        H  0.48866664  0.16554651  0.81714272     0.11500
H528        H  0.40356251  0.12888999  0.82520019     0.13600
C529        C  0.51853279  0.91224945  0.07815098     0.19600
C530        C  0.49269664  0.87494196  0.08609387    -0.18400
C531        C  0.50059843  0.85563953  0.11108501    -0.10700
C532        C  0.53469766  0.87331327  0.12891698     0.21900
C533        C  0.56086946  0.91034635  0.12048621    -0.20100
C534        C  0.55296273  0.92968208  0.09548992    -0.10900
C535        C  0.54429640  0.85394115  0.15584820    -0.15100
C536        C  0.51844197  0.82432051  0.17354311    -0.28900
C537        C  0.50870319  0.93123409  0.05101326    -0.03200
C538        C  0.52633070  0.96846891  0.04609718    -0.39700
H539        H  0.46619540  0.86058712  0.07286086     0.13000
H540        H  0.48011254  0.82673850  0.11581727     0.12700
H541        H  0.58755923  0.92448064  0.13342512     0.12100
H542        H  0.57425637  0.95795705  0.08962827     0.12300
H543        H  0.57360312  0.86547460  0.16235645     0.15100
H544        H  0.48893738  0.81354446  0.16875836     0.13900
H545        H  0.48538290  0.91362560  0.03449498     0.11500
H546        H  0.55035498  0.98684631  0.06140824     0.13600
C547        C  0.36560901  0.87185645  0.13645961     0.19600
C548        C  0.37715862  0.86078756  0.10706088    -0.18400
C549        C  0.40214518  0.88738402  0.08385453    -0.10700
C550        C  0.41678560  0.92568609  0.09007396     0.21900
C551        C  0.40571511  0.93678991  0.11972636    -0.20100
C552        C  0.38001662  0.91016975  0.14250906    -0.10900
C553        C  0.44601046  0.95440992  0.06761404    -0.15100
C554        C  0.44664549  0.95044610  0.03353171    -0.28900
C555        C  0.34059004  0.84311741  0.16152561    -0.03200
C556        C  0.31470162  0.84626788  0.18003900    -0.39700
H557        H  0.36692282  0.83148321  0.10213178     0.13000
H558        H  0.41102437  0.87800774  0.06171286     0.12700
H559        H  0.41716260  0.96614223  0.12535246     0.12100
H560        H  0.37246356  0.91963108  0.16542752     0.12300
H561        H  0.46790218  0.97956937  0.07949247     0.15100
H562        H  0.42327750  0.92720587  0.02088135     0.13900
H563        H  0.34287806  0.81811942  0.16410446     0.11500
H564        H  0.31022206  0.86973663  0.17575634     0.13600
loop_ 
_geom_bond_atom_site_label_1 
_geom_bond_atom_site_label_2 
_geom_bond_distance 
_geom_bond_site_symmetry_2 
_ccdc_geom_bond_type 
C1            C2   1.420       .  A
C1            C6   1.407   1_554  A
C1          C554   1.485       .  S
C2            C3   1.403   1_564  A
C2          C538   1.489       .  S
C3            C4   1.405       .  A
C3            H8   1.084   1_556  S
C4            C5   1.417       .  A
C4          C502   1.491       .  S
C5            C6   1.407   1_545  A
C5          C518   1.491       .  S
C6            H7   1.084       .  S
O9           V17   1.895       .  S
O9           C19   1.264       .  A
O10          V17   1.896       .  S
O10          C20   1.262       .  A
O11          V17   1.911       .  S
O11          C21   1.267       .  A
O12          V17   1.911       .  S
O12          C22   1.267       .  A
O13          V18   1.893       .  S
O13          C22   1.262       .  A
O14          V18   1.893       .  S
O14          C21   1.261       .  A
O15          V18   1.910       .  S
O15          C20   1.267       .  A
O16          V18   1.911       .  S
O16          C19   1.266       .  A
V17          V18   2.088       .  T
C19         C482   1.482       .  S
C20         C536   1.477       .  S
C21         C464   1.476       .  S
C22         C448   1.474       .  S
O23          V31   1.917       .  S
O23          C33   1.268       .  A
O24          V31   1.917       .  S
O24          C34   1.269       .  A
O25          V31   1.895       .  S
O25          C35   1.262       .  A
O26          V31   1.893       .  S
O26          C36   1.261       .  A
O27          V32   1.909       .  S
O27          C36   1.267       .  A
O28          V32   1.909       .  S
O28          C35   1.267       .  A
O29          V32   1.892       .  S
O29          C34   1.261       .  A
O30          V32   1.892       .  S
O30          C33   1.263       .  A
V31          V32   2.087       .  T
C33         C520   1.485       .  S
C34         C430   1.479       .  S
C35         C394   1.477       .  S
C36         C410   1.474       .  S
O37          V45   1.906       .  S
O37          C47   1.265       .  A
O38          V45   1.907       .  S
O38          C48   1.265       .  A
O39          V45   1.899       .  S
O39          C49   1.263       .  A
O40          V45   1.900       .  S
O40          C50   1.263       .  A
O41          V46   1.902       .  S
O41          C50   1.266       .  A
O42          V46   1.904       .  S
O42          C49   1.266       .  A
O43          V46   1.904       .  S
O43          C48   1.265       .  A
O44          V46   1.905       .  S
O44          C47   1.266       .  A
V45          V46   2.087       .  T
C47         C338   1.482       .  S
C48         C374   1.483       .  S
C49         C500   1.477       .  S
C50         C356   1.477       .  S
O51          V59   1.902       .  S
O51          C61   1.264       .  A
O52          V59   1.904       .  S
O52          C62   1.266       .  A
O53          V59   1.903       .  S
O53          C63   1.265       .  A
O54          V59   1.904       .  S
O54          C64   1.265       .  A
O55          V60   1.906       .  S
O55          C64   1.265       .  A
O56          V60   1.909       .  S
O56          C63   1.266       .  A
O57          V60   1.904       .  S
O57          C62   1.264       .  A
O58          V60   1.907       .  S
O58          C61   1.266       .  A
V59          V60   2.087       .  T
C61         C304   1.480       .  S
C62         C286   1.481       .  S
C63         C320   1.482       .  S
C64         C556   1.479       .  S
C65          C66   1.420       .  A
C65          C70   1.401   1_656  A
C65         C266   1.491       .  S
C66          C67   1.413   1_556  A
C66         C376   1.496       .  S
C67          C68   1.413   1_655  A
C67          H72   1.081       .  S
C68          C69   1.419       .  A
C68         C248   1.493       .  S
C69          C70   1.400       .  A
C69         C302   1.492       .  S
C70          H71   1.085       .  S
C73          C74   1.416       .  A
C73          C78   1.404       .  A
C73         C230   1.490       .  S
C74          C75   1.407       .  A
C74         C358   1.485       .  S
C75          C76   1.407   1_655  A
C75          H80   1.084       .  S
C76          C77   1.418       .  A
C76         C212   1.486       .  S
C77          C78   1.404   1_455  A
C77         C322   1.489       .  S
C78          H79   1.084       .  S
O81          V89   1.900       .  S
O81          C91   1.263       .  A
O82          V89   1.898       .  S
O82          C92   1.263       .  A
O83          V89   1.905       .  S
O83          C93   1.265       .  A
O84          V89   1.906       .  S
O84          C94   1.265       .  A
O85          V90   1.901       .  S
O85          C94   1.265       .  A
O86          V90   1.904       .  S
O86          C93   1.265       .  A
O87          V90   1.902       .  S
O87          C92   1.266       .  A
O88          V90   1.902       .  S
O88          C91   1.266       .  A
V89          V90   2.087       .  T
C91         C214   1.478       .  S
C92         C176   1.474       .  S
C93         C194   1.481       .  S
C94         C250   1.481       .  S
O95         V103   1.898       .  S
O95         C105   1.263       .  A
O96         V103   1.898       .  S
O96         C106   1.263       .  A
O97         V103   1.917       .  S
O97         C107   1.268       .  A
O98         V103   1.914       .  S
O98         C108   1.268       .  A
O99         V104   1.893       .  S
O99         C108   1.262       .  A
O100        V104   1.893       .  S
O100        C107   1.264       .  A
O101        V104   1.910       .  S
O101        C106   1.267       .  A
O102        V104   1.907       .  S
O102        C105   1.267       .  A
V103        V104   2.087       .  T
C105        C142   1.478       .  S
C106        C232   1.478       .  S
C107        C160   1.486       .  S
C108        C268   1.477       .  S
C109        C110   1.413       .  A
C109        C114   1.404       .  A
C109        C178   1.485       .  S
C110        C111   1.403   1_554  A
C110        C466   1.478       .  S
C111        C112   1.405       .  A
C111        H116   1.084       .  S
C112        C113   1.414       .  A
C112        C140   1.484       .  S
C113        C114   1.400   1_556  A
C113        C412   1.478       .  S
C114        H115   1.084       .  S
C117        C118   1.418       .  A
C117        C122   1.407       .  A
C117        C196   1.498       .  S
C118        C119   1.409       .  A
C118        C484   1.491       .  S
C119        C120   1.409       .  A
C119        H124   1.083       .  S
C120        C121   1.421       .  A
C120        C158   1.491       .  S
C121        C122   1.404       .  A
C121        C428   1.494       .  S
C122        H123   1.083       .  S
C125        C126   1.414       .  A
C125        C130   1.403   1_565  A
C125        C284   1.485       .  S
C126        C127   1.404   1_565  A
C126        C446   1.486       .  S
C127        C128   1.410       .  A
C127        H132   1.083       .  S
C128        C129   1.419       .  A
C128        C340   1.499       .  S
C129        C130   1.407       .  A
C129        C392   1.483       .  S
C130        H131   1.084       .  S
C133        C134   1.402       .  A
C133        C138   1.409       .  A
C133        C141   1.489       .  S
C134        C135   1.397       .  A
C134        H143   1.084       .  S
C135        C136   1.410       .  A
C135        H144   1.081       .  S
C136        C137   1.404       .  A
C136        C139   1.491       .  S
C137        C138   1.401       .  A
C137        H145   1.084       .  S
C138        H146   1.081       .  S
C139        H147   1.087       .  S
C139        C140   1.345       .  D
C140        H148   1.082       .  S
C141        H149   1.087       .  S
C141        C142   1.345       .  D
C142        H150   1.085       .  S
C151        C152   1.404       .  A
C151        C156   1.409       .  A
C151        C159   1.493       .  S
C152        C153   1.395       .  A
C152        H161   1.083       .  S
C153        C154   1.407       .  A
C153        H162   1.080       .  S
C154        C155   1.407       .  A
C154        C157   1.495       .  S
C155        C156   1.406       .  A
C155        H163   1.083       .  S
C156        H164   1.081       .  S
C157        H165   1.086       .  S
C157        C158   1.350       .  D
C158        H166   1.084       .  S
C159        H167   1.087       .  S
C159        C160   1.351       .  D
C160        H168   1.084       .  S
C169        C170   1.403       .  A
C169        C174   1.409       .  A
C169        C177   1.487       .  S
C170        C171   1.399       .  A
C170        H179   1.083       .  S
C171        C172   1.408       .  A
C171        H180   1.081       .  S
C172        C173   1.402       .  A
C172        C175   1.485       .  S
C173        C174   1.396       .  A
C173        H181   1.083       .  S
C174        H182   1.081       .  S
C175        H183   1.088       .  S
C175        C176   1.344       .  D
C176        H184   1.085       .  S
C177        H185   1.087       .  S
C177        C178   1.345       .  D
C178        H186   1.084       .  S
C187        C188   1.403       .  A
C187        C192   1.408       .  A
C187        C195   1.492       .  S
C188        C189   1.401       .  A
C188        H197   1.083       .  S
C189        C190   1.410       .  A
C189        H198   1.080       .  S
C190        C191   1.405       .  A
C190        C193   1.494       .  S
C191        C192   1.400       .  A
C191        H199   1.083       .  S
C192        H200   1.082       .  S
C193        H201   1.087       .  S
C193        C194   1.349       .  D
C194        H202   1.084       .  S
C195        H203   1.086       .  S
C195        C196   1.349       .  D
C196        H204   1.085       .  S
C205        C206   1.403       .  A
C205        C210   1.410       .  A
C205        C213   1.492       .  S
C206        C207   1.396       .  A
C206        H215   1.084       .  S
C207        C208   1.409       .  A
C207        H216   1.081       .  S
C208        C209   1.404       .  A
C208        C211   1.492       .  S
C209        C210   1.401       .  A
C209        H217   1.084       .  S
C210        H218   1.080       .  S
C211        H219   1.087       .  S
C211        C212   1.347       .  D
C212        H220   1.080       .  S
C213        H221   1.088       .  S
C213        C214   1.346       .  D
C214        H222   1.083       .  S
C223        C224   1.404       .  A
C223        C228   1.406       .  A
C223        C231   1.487       .  S
C224        C225   1.403       .  A
C224        H233   1.083       .  S
C225        C226   1.407       .  A
C225        H234   1.083       .  S
C226        C227   1.403       .  A
C226        C229   1.486       .  S
C227        C228   1.399       .  A
C227        H235   1.083       .  S
C228        H236   1.083       .  S
C229        H237   1.088       .  S
C229        C230   1.347       .  D
C230        H238   1.086       .  S
C231        H239   1.087       .  S
C231        C232   1.345       .  D
C232        H240   1.087       .  S
C241        C242   1.404       .  A
C241        C246   1.410       .  A
C241        C249   1.491       .  S
C242        C243   1.397       .  A
C242        H251   1.083       .  S
C243        C244   1.407       .  A
C243        H252   1.082       .  S
C244        C245   1.404       .  A
C244        C247   1.489       .  S
C245        C246   1.403       .  A
C245        H253   1.083       .  S
C246        H254   1.080       .  S
C247        H255   1.085       .  S
C247        C248   1.348       .  D
C248        H256   1.085       .  S
C249        H257   1.087       .  S
C249        C250   1.348       .  D
C250        H258   1.084       .  S
C259        C260   1.404       .  A
C259        C264   1.408       .  A
C259        C267   1.492       .  S
C260        C261   1.402       .  A
C260        H269   1.083       .  S
C261        C262   1.411       .  A
C261        H270   1.079       .  S
C262        C263   1.404       .  A
C262        C265   1.494       .  S
C263        C264   1.398       .  A
C263        H271   1.083       .  S
C264        H272   1.081       .  S
C265        H273   1.087       .  S
C265        C266   1.348       .  D
C266        H274   1.083       .  S
C267        H275   1.087       .  S
C267        C268   1.346       .  D
C268        H276   1.085       .  S
C277        C278   1.403       .  A
C277        C282   1.409       .  A
C277        C285   1.491       .  S
C278        C279   1.398       .  A
C278        H287   1.084       .  S
C279        C280   1.410       .  A
C279        H288   1.080       .  S
C280        C281   1.405       .  A
C280        C283   1.494       .  S
C281        C282   1.403       .  A
C281        H289   1.083       .  S
C282        H290   1.081       .  S
C283        H291   1.087       .  S
C283        C284   1.346       .  D
C284        H292   1.083       .  S
C285        H293   1.087       .  S
C285        C286   1.347       .  D
C286        H294   1.084       .  S
C295        C296   1.404       .  A
C295        C300   1.408       .  A
C295        C303   1.492       .  S
C296        C297   1.401       .  A
C296        H305   1.083       .  S
C297        C298   1.409       .  A
C297        H306   1.080       .  S
C298        C299   1.405       .  A
C298        C301   1.494       .  S
C299        C300   1.400       .  A
C299        H307   1.083       .  S
C300        H308   1.081       .  S
C301        H309   1.087       .  S
C301        C302   1.349       .  D
C302        H310   1.084       .  S
C303        H311   1.087       .  S
C303        C304   1.348       .  D
C304        H312   1.085       .  S
C313        C314   1.405       .  A
C313        C318   1.409       .  A
C313        C321   1.494       .  S
C314        C315   1.400       .  A
C314        H323   1.084       .  S
C315        C316   1.408       .  A
C315        H324   1.081       .  S
C316        C317   1.405       .  A
C316        C319   1.494       .  S
C317        C318   1.403       .  A
C317        H325   1.083       .  S
C318        H326   1.081       .  S
C319        H327   1.087       .  S
C319        C320   1.349       .  D
C320        H328   1.084       .  S
C321        H329   1.088       .  S
C321        C322   1.348       .  D
C322        H330   1.084       .  S
C331        C332   1.406       .  A
C331        C336   1.410       .  A
C331        C339   1.496       .  S
C332        C333   1.402       .  A
C332        H341   1.083       .  S
C333        C334   1.408       .  A
C333        H342   1.081       .  S
C334        C335   1.404       .  A
C334        C337   1.493       .  S
C335        C336   1.400       .  A
C335        H343   1.084       .  S
C336        H344   1.081       .  S
C337        H345   1.087       .  S
C337        C338   1.348       .  D
C338        H346   1.085       .  S
C339        H347   1.086       .  S
C339        C340   1.350       .  D
C340        H348   1.081       .  S
C349        C350   1.403       .  A
C349        C354   1.408       .  A
C349        C357   1.489       .  S
C350        C351   1.400       .  A
C350        H359   1.083       .  S
C351        C352   1.410       .  A
C351        H360   1.080       .  S
C352        C353   1.404       .  A
C352        C355   1.491       .  S
C353        C354   1.397       .  A
C353        H361   1.084       .  S
C354        H362   1.081       .  S
C355        H363   1.087       .  S
C355        C356   1.346       .  D
C356        H364   1.082       .  S
C357        H365   1.086       .  S
C357        C358   1.345       .  D
C358        H366   1.084       .  S
C367        C368   1.404       .  A
C367        C372   1.408       .  A
C367        C375   1.492       .  S
C368        C369   1.403       .  A
C368        H377   1.083       .  S
C369        C370   1.409       .  A
C369        H378   1.082       .  S
C370        C371   1.404       .  A
C370        C373   1.492       .  S
C371        C372   1.400       .  A
C371        H379   1.083       .  S
C372        H380   1.083       .  S
C373        H381   1.087       .  S
C373        C374   1.349       .  D
C374        H382   1.085       .  S
C375        H383   1.085       .  S
C375        C376   1.349       .  D
C376        H384   1.084       .  S
C385        C386   1.403       .  A
C385        C390   1.409       .  A
C385        C393   1.490       .  S
C386        C387   1.399       .  A
C386        H395   1.083       .  S
C387        C388   1.409       .  A
C387        H396   1.081       .  S
C388        C389   1.403       .  A
C388        C391   1.491       .  S
C389        C390   1.400       .  A
C389        H397   1.084       .  S
C390        H398   1.081       .  S
C391        H399   1.088       .  S
C391        C392   1.345       .  D
C392        H400   1.084       .  S
C393        H401   1.086       .  S
C393        C394   1.345       .  D
C394        H402   1.084       .  S
C403        C404   1.401       .  A
C403        C408   1.408       .  A
C403        C411   1.484       .  S
C404        C405   1.397       .  A
C404        H413   1.083       .  S
C405        C406   1.408       .  A
C405        H414   1.082       .  S
C406        C407   1.403       .  A
C406        C409   1.487       .  S
C407        C408   1.399       .  A
C407        H415   1.084       .  S
C408        H416   1.082       .  S
C409        H417   1.087       .  S
C409        C410   1.344       .  D
C410        H418   1.085       .  S
C411        H419   1.088       .  S
C411        C412   1.342       .  D
C412        H420   1.085       .  S
C421        C422   1.404       .  A
C421        C426   1.408       .  A
C421        C429   1.491       .  S
C422        C423   1.403       .  A
C422        H431   1.083       .  S
C423        C424   1.408       .  A
C423        H432   1.082       .  S
C424        C425   1.403       .  A
C424        C427   1.489       .  S
C425        C426   1.399       .  A
C425        H433   1.083       .  S
C426        H434   1.083       .  S
C427        H435   1.086       .  S
C427        C428   1.349       .  D
C428        H436   1.085       .  S
C429        H437   1.087       .  S
C429        C430   1.345       .  D
C430        H438   1.087       .  S
C439        C440   1.403       .  A
C439        C444   1.407       .  A
C439        C447   1.484       .  S
C440        C441   1.401       .  A
C440        H449   1.083       .  S
C441        C442   1.406       .  A
C441        H450   1.083       .  S
C442        C443   1.402       .  A
C442        C445   1.481       .  S
C443        C444   1.398       .  A
C443        H451   1.083       .  S
C444        H452   1.083       .  S
C445        H453   1.087       .  S
C445        C446   1.346       .  D
C446        H454   1.086       .  S
C447        H455   1.087       .  S
C447        C448   1.343       .  D
C448        H456   1.087       .  S
C457        C458   1.402       .  A
C457        C462   1.409       .  A
C457        C465   1.487       .  S
C458        C459   1.399       .  A
C458        H467   1.083       .  S
C459        C460   1.408       .  A
C459        H468   1.081       .  S
C460        C461   1.403       .  A
C460        C463   1.489       .  S
C461        C462   1.400       .  A
C461        H469   1.083       .  S
C462        H470   1.081       .  S
C463        H471   1.087       .  S
C463        C464   1.344       .  D
C464        H472   1.085       .  S
C465        H473   1.088       .  S
C465        C466   1.343       .  D
C466        H474   1.085       .  S
C475        C476   1.405       .  A
C475        C480   1.407       .  A
C475        C483   1.492       .  S
C476        C477   1.404       .  A
C476        H485   1.083       .  S
C477        C478   1.408       .  A
C477        H486   1.081       .  S
C478        C479   1.403       .  A
C478        C481   1.489       .  S
C479        C480   1.396       .  A
C479        H487   1.084       .  S
C480        H488   1.082       .  S
C481        H489   1.087       .  S
C481        C482   1.348       .  D
C482        H490   1.084       .  S
C483        H491   1.086       .  S
C483        C484   1.348       .  D
C484        H492   1.084       .  S
C493        C494   1.404       .  A
C493        C498   1.408       .  A
C493        C501   1.490       .  S
C494        C495   1.401       .  A
C494        H503   1.084       .  S
C495        C496   1.409       .  A
C495        H504   1.081       .  S
C496        C497   1.403       .  A
C496        C499   1.489       .  S
C497        C498   1.397       .  A
C497        H505   1.083       .  S
C498        H506   1.081       .  S
C499        H507   1.087       .  S
C499        C500   1.345       .  D
C500        H508   1.084       .  S
C501        H509   1.087       .  S
C501        C502   1.348       .  D
C502        H510   1.084       .  S
C511        C512   1.404       .  A
C511        C516   1.409       .  A
C511        C519   1.492       .  S
C512        C513   1.396       .  A
C512        H521   1.084       .  S
C513        C514   1.408       .  A
C513        H522   1.082       .  S
C514        C515   1.406       .  A
C514        C517   1.495       .  S
C515        C516   1.406       .  A
C515        H523   1.083       .  S
C516        H524   1.081       .  S
C517        H525   1.086       .  S
C517        C518   1.348       .  D
C518        H526   1.084       .  S
C519        H527   1.087       .  S
C519        C520   1.350       .  D
C520        H528   1.084       .  S
C529        C530   1.404       .  A
C529        C534   1.409       .  A
C529        C537   1.491       .  S
C530        C531   1.399       .  A
C530        H539   1.084       .  S
C531        C532   1.408       .  A
C531        H540   1.081       .  S
C532        C533   1.403       .  A
C532        C535   1.491       .  S
C533        C534   1.400       .  A
C533        H541   1.083       .  S
C534        H542   1.080       .  S
C535        H543   1.087       .  S
C535        C536   1.346       .  D
C536        H544   1.085       .  S
C537        H545   1.087       .  S
C537        C538   1.348       .  D
C538        H546   1.083       .  S
C547        C548   1.404       .  A
C547        C552   1.407       .  A
C547        C555   1.487       .  S
C548        C549   1.400       .  A
C548        H557   1.083       .  S
C549        C550   1.406       .  A
C549        H558   1.083       .  S
C550        C551   1.403       .  A
C550        C553   1.484       .  S
C551        C552   1.401       .  A
C551        H559   1.083       .  S
C552        H560   1.083       .  S
C553        H561   1.087       .  S
C553        C554   1.345       .  D
C554        H562   1.086       .  S
C555        H563   1.087       .  S
C555        C556   1.346       .  D
C556        H564   1.086       .  S
