geometry optimzed in LAMMPS
_audit_creation_date              2020-12-01 
_audit_creation_method            'lammps2cif' 
_symmetry_space_group_name_H-M    'P1' 
_symmetry_Int_Tables_number       1 
_symmetry_cell_setting            triclinic 
loop_ 
_symmetry_equiv_pos_as_xyz 
  x,y,z 
_cell_length_a                    28.83643693 
_cell_length_b                    28.815840262602443 
_cell_length_c                    28.876870706376465 
_cell_angle_alpha                 90.02412096679252 
_cell_angle_beta                  90.03939515986173 
_cell_angle_gamma                 89.87287984698915 
loop_ 
_atom_site_label 
_atom_site_type_symbol 
_atom_site_fract_x 
_atom_site_fract_y 
_atom_site_fract_z 
_atom_site_charge 
C1          C  0.55407689  0.54861502  0.23181741     0.03400
C2          C  0.52574026  0.57980598  0.25642769    -0.12700
C3          C  0.52722342  0.58091170  0.30491689     0.00900
C4          C  0.55783620  0.55161346  0.32861789    -0.11300
C5          C  0.58681991  0.52099613  0.30456792     0.03400
C6          C  0.58561535  0.52017513  0.25603037    -0.10700
H7          H  0.50052697  0.60087653  0.23810040     0.09000
H8          H  0.55783677  0.55139064  0.36619019     0.06500
H9          H  0.60718101  0.49570226  0.23732806     0.06400
C10         C  0.46607473  0.46203924  0.58473618     0.03400
C11         C  0.49571043  0.43089189  0.56137901    -0.12700
C12         C  0.49433237  0.42767034  0.51289782     0.00900
C13         C  0.46300414  0.45536436  0.48808708    -0.11300
C14         C  0.43274959  0.48569482  0.51097145     0.03400
C15         C  0.43341914  0.48800729  0.55937179    -0.10700
H16         H  0.52137969  0.41122404  0.58059204     0.09000
H17         H  0.46318284  0.45439534  0.45053748     0.06500
H18         H  0.41022391  0.51172912  0.57706048     0.06400
C19         C  0.82941934  0.54533085  0.85414193     0.03400
C20         C  0.85455867  0.51626127  0.82388311    -0.12700
C21         C  0.90320216  0.51697077  0.82393909     0.00900
C22         C  0.92656859  0.54769816  0.85327105    -0.11300
C23         C  0.90212152  0.57684877  0.88337998     0.03400
C24         C  0.85358948  0.57555217  0.88387634    -0.10700
H25         H  0.83640320  0.49160008  0.80210839     0.09000
H26         H  0.96418452  0.54766842  0.85394975     0.06500
H27         H  0.83493976  0.59567623  0.90952875     0.06400
C28         C  0.45747348  0.82895177  0.86030291     0.03400
C29         C  0.48627423  0.85231698  0.82874126    -0.12700
C30         C  0.48546121  0.90082750  0.82623922     0.00900
C31         C  0.45508618  0.92582925  0.85482886    -0.11300
C32         C  0.42596677  0.90293132  0.88615598     0.03400
C33         C  0.42697431  0.85438833  0.88859740    -0.10700
H34         H  0.51113812  0.83294534  0.80821941     0.09000
H35         H  0.45543468  0.96346075  0.85398761     0.06500
H36         H  0.40644081  0.83672089  0.91457003     0.06400
C37         C  0.18307925  0.45602926  0.94881670     0.03400
C38         C  0.15762498  0.48473730  0.97900806    -0.12700
C39         C  0.10908942  0.48281319  0.97953637     0.00900
C40         C  0.08609999  0.45171913  0.95024653    -0.11300
C41         C  0.11088468  0.42312332  0.91983262     0.03400
C42         C  0.15945261  0.42504847  0.91937562    -0.10700
H43         H  0.17530097  0.51049696  0.99984641     0.09000
H44         H  0.04848427  0.45113983  0.94973262     0.06500
H45         H  0.17868537  0.40429660  0.89461757     0.06400
C46         C  0.54880930  0.18190968  0.94448921     0.03400
C47         C  0.58003574  0.15626162  0.91706784    -0.12700
C48         C  0.57967799  0.10767067  0.91842920     0.00900
C49         C  0.54974178  0.08489318  0.94894356    -0.11300
C50         C  0.51995334  0.11002096  0.97793918     0.03400
C51         C  0.51964335  0.15858961  0.97582102    -0.10700
H52         H  0.60310771  0.17391265  0.89335056     0.09000
H53         H  0.54880257  0.04726352  0.94932109     0.06500
H54         H  0.49503486  0.17801646  0.99658401     0.06400
Zn55       Zn  0.54627492  0.55456974  0.93457350     1.49700
Zn56       Zn  0.54432766  0.46562839  0.86831698     1.49400
Zn57       Zn  0.47876610  0.46957777  0.95786128     1.49100
Zn58       Zn  0.45817652  0.53493661  0.87037327     1.49500
O59         O  0.50690041  0.50613141  0.90791019    -1.83800
O60         O  0.61252858  0.54872638  0.91207795    -0.74500
O61         O  0.54272414  0.39985644  0.89066208    -0.74300
O62         O  0.49703054  0.49473172  0.02075619    -0.73800
O63         O  0.61118271  0.48583424  0.86753352    -0.74500
O64         O  0.54623339  0.55135799  0.00448455    -0.74100
O65         O  0.50020624  0.40274919  0.95476226    -0.74700
O66         O  0.39510464  0.51485615  0.89214920    -0.74100
O67         O  0.52110553  0.46557042  0.80255530    -0.74800
O68         O  0.40853656  0.46946646  0.95256282    -0.74200
O69         O  0.46343046  0.51687408  0.80303311    -0.74700
O70         O  0.46125490  0.60453758  0.87343431    -0.74600
O71         O  0.52309807  0.61808055  0.91669657    -0.74400
C72         C  0.63300532  0.51936872  0.88612197     0.77400
C73         C  0.52469708  0.38021952  0.92571656     0.77900
C74         C  0.52462515  0.52667128  0.03393201     0.76900
C75         C  0.38034067  0.48873617  0.92440983     0.77200
C76         C  0.48932055  0.48809273  0.78179131     0.78400
C77         C  0.48924886  0.63282247  0.89251131     0.77400
C78         C  0.55621905  0.32694997  0.45471715     0.03400
C79         C  0.52806596  0.35168392  0.48609066    -0.12700
C80         C  0.52899169  0.40041820  0.48672969     0.00900
C81         C  0.55877979  0.42404023  0.45662378    -0.11300
C82         C  0.58704169  0.39983418  0.42545838     0.03400
C83         C  0.58605585  0.35125498  0.42485751    -0.10700
H84         H  0.50336205  0.33328820  0.50751009     0.09000
H85         H  0.55857095  0.46168589  0.45613714     0.06500
H86         H  0.60647842  0.33247795  0.39948224     0.06400
C87         C  0.46333222  0.67993132  0.36331371     0.03400
C88         C  0.43141174  0.65497249  0.39050241    -0.12700
C89         C  0.43180269  0.60633371  0.39006619     0.00900
C90         C  0.46220200  0.58286177  0.36045145    -0.11300
C91         C  0.49265789  0.60724928  0.33176822     0.03400
C92         C  0.49305336  0.65583110  0.33300770    -0.10700
H93         H  0.40806167  0.67317839  0.41360615     0.09000
H94         H  0.46306303  0.54521763  0.36066039     0.06500
H95         H  0.51820298  0.67467003  0.31247577     0.06400
C96         C  0.55081018  0.95476308  0.72559552     0.03400
C97         C  0.58040372  0.98510679  0.74997299    -0.12700
C98         C  0.58047654  0.98559115  0.79855996     0.00900
C99         C  0.55070487  0.95601699  0.82271184    -0.11300
C100        C  0.52051507  0.92634138  0.79919027     0.03400
C101        C  0.52119802  0.92504182  0.75065019    -0.10700
H102        H  0.60100543  0.01035908  0.73141584     0.09000
H103        H  0.54981269  0.95733358  0.86025514     0.06500
H104        H  0.49700417  0.90284784  0.73239935     0.06400
C105        C  0.83237830  0.96075013  0.35825407     0.03400
C106        C  0.85550369  0.92958923  0.38798716    -0.12700
C107        C  0.90411187  0.92752225  0.38835215     0.00900
C108        C  0.92937073  0.95660014  0.35881899    -0.11300
C109        C  0.90675112  0.98771858  0.32908311     0.03400
C110        C  0.85824005  0.98935467  0.32853263    -0.10700
H111        H  0.83584279  0.90877536  0.41225006     0.09000
H112        H  0.96696726  0.95597454  0.36000024     0.06500
H113        H  0.84065817  0.01435713  0.30661161     0.06400
C114        C  0.45735960  0.05405936  0.07913656     0.03400
C115        C  0.48694812  0.08371699  0.05402390    -0.12700
C116        C  0.48535965  0.08447730  0.00544665     0.00900
C117        C  0.45437048  0.05553936  0.98206535    -0.11300
C118        C  0.42555084  0.02519468  0.00633499     0.03400
C119        C  0.42630342  0.02517903  0.05486347    -0.10700
H120        H  0.51326819  0.10364586  0.07186371     0.09000
H121        H  0.45425077  0.05505561  0.94448756     0.06500
H122        H  0.40481996  0.00076319  0.07362264     0.06400
C123        C  0.18641361  0.03947312  0.45218582     0.03400
C124        C  0.16065425  0.01269823  0.48373630    -0.12700
C125        C  0.11210198  0.01488169  0.48356607     0.00900
C126        C  0.08958838  0.04571531  0.45348877    -0.11300
C127        C  0.11492679  0.07415005  0.42347098     0.03400
C128        C  0.16337613  0.07107112  0.42294447    -0.10700
H129        H  0.17813777  0.98879920  0.50684822     0.09000
H130        H  0.05199159  0.04686137  0.45269000     0.06500
H131        H  0.18292088  0.09137922  0.39815175     0.06400
Zn132      Zn  0.47089139  0.05358643  0.37554561     1.49700
Zn133      Zn  0.55794950  0.03095728  0.44095383     1.49400
Zn134      Zn  0.47064673  0.96317674  0.44022979     1.49100
Zn135      Zn  0.53652508  0.96738241  0.35146570     1.49500
O136        O  0.50911896  0.00383051  0.40198419    -1.83800
O137        O  0.49469373  0.11635042  0.39523078    -0.74500
O138        O  0.55452270  0.00735720  0.50717954    -0.74300
O139        O  0.40417658  0.98405512  0.44009991    -0.73800
O140        O  0.55338777  0.10127425  0.44246661    -0.74500
O141        O  0.40494241  0.04864009  0.39808183    -0.74100
O142        O  0.49199640  0.96254843  0.50660186    -0.74700
O143        O  0.51684439  0.90006705  0.35456821    -0.74100
O144        O  0.62084327  0.01428132  0.41563351    -0.74800
O145        O  0.47225068  0.89748024  0.41719759    -0.74200
O146        O  0.60666688  0.96986624  0.35432928    -0.74700
O147        O  0.51555015  0.99137231  0.28923709    -0.74600
O148        O  0.46945755  0.05086913  0.30519004    -0.74400
C149        C  0.52698004  0.13024944  0.42190530     0.77400
C150        C  0.52568921  0.98123427  0.52803670     0.77900
C151        C  0.38356068  0.01910720  0.42287292     0.76900
C152        C  0.49134559  0.87768599  0.38272666     0.77200
C153        C  0.63502496  0.99005370  0.38157145     0.78400
C154        C  0.48869677  0.02385106  0.27591908     0.77400
C155        C  0.05184060  0.32418652  0.85649771     0.03400
C156        C  0.08269924  0.34803952  0.88584782    -0.12700
C157        C  0.08490676  0.39666717  0.88463318     0.00900
C158        C  0.05682333  0.42119069  0.85350970    -0.11300
C159        C  0.02667448  0.39789009  0.82356938     0.03400
C160        C  0.02513613  0.34928896  0.82420004    -0.10700
H161        H  0.10253427  0.32911261  0.91155965     0.09000
H162        H  0.05705916  0.45883848  0.85390072     0.06500
H163        H  0.00112080  0.33124782  0.80166542     0.06400
C164        C  0.32637813  0.95906122  0.95141127     0.03400
C165        C  0.35088340  0.92959054  0.92116107    -0.12700
C166        C  0.39947495  0.93042848  0.92022614     0.00900
C167        C  0.42337559  0.96064816  0.94970056    -0.11300
C168        C  0.39938113  0.99004920  0.98005021     0.03400
C169        C  0.35090705  0.98878514  0.98126680    -0.10700
H170        H  0.33229640  0.90821284  0.89652353     0.09000
H171        H  0.46093729  0.96206894  0.94825650     0.06500
H172        H  0.33221745  0.01269678  0.00349098     0.06400
C173        C  0.96321647  0.05145486  0.22886542     0.03400
C174        C  0.99487727  0.07968851  0.25312926    -0.12700
C175        C  0.99601709  0.07903993  0.30167527     0.00900
C176        C  0.96581490  0.04987549  0.32590162    -0.11300
C177        C  0.93441156  0.02146026  0.30241667     0.03400
C178        C  0.93245302  0.02301351  0.25396950    -0.10700
H179        H  0.02009082  0.10019709  0.23435045     0.09000
H180        H  0.96750340  0.04851342  0.36340743     0.06500
H181        H  0.90877870  0.00024615  0.23574051     0.06400
C182        C  0.95821329  0.67610322  0.94903853     0.03400
C183        C  0.92884387  0.65193328  0.91843889    -0.12700
C184        C  0.92815512  0.60326844  0.91849392     0.00900
C185        C  0.95659603  0.57886765  0.94928935    -0.11300
C186        C  0.98614423  0.60229787  0.97970295     0.03400
C187        C  0.98658639  0.65096089  0.97991982    -0.10700
H188        H  0.90879351  0.67073532  0.89281171     0.09000
H189        H  0.95697400  0.54123012  0.94841010     0.06500
H190        H  0.01067347  0.66918031  0.00226534     0.06400
C191        C  0.67975814  0.04691595  0.85880088     0.03400
C192        C  0.65511109  0.07787844  0.88729001    -0.12700
C193        C  0.60663579  0.07990315  0.88501054     0.00900
C194        C  0.58297237  0.05121428  0.85383885    -0.11300
C195        C  0.60710508  0.02025034  0.82516226     0.03400
C196        C  0.65566839  0.01846456  0.82735614    -0.10700
H197        H  0.67346207  0.09870919  0.91260174     0.09000
H198        H  0.54536204  0.05174078  0.85312557     0.06500
H199        H  0.67441764  0.99317424  0.80678614     0.06400
C200        C  0.05321634  0.95483938  0.58456335     0.03400
C201        C  0.08470577  0.98228069  0.55933782    -0.12700
C202        C  0.08402611  0.98196839  0.51082355     0.00900
C203        C  0.05281057  0.95304061  0.48759742    -0.11300
C204        C  0.02151318  0.92526315  0.51208033     0.03400
C205        C  0.02168257  0.92621865  0.56061727    -0.10700
H206        H  0.10793130  0.00564431  0.57741050     0.09000
H207        H  0.05197425  0.95312635  0.45003390     0.06500
H208        H  0.99558326  0.90697754  0.57946227     0.06400
Zn209      Zn  0.97530534  0.03888955  0.85732679     1.49700
Zn210      Zn  0.04194370  0.95217146  0.87978407     1.49400
Zn211      Zn  0.04275245  0.04250327  0.94486345     1.49100
Zn212      Zn  0.95542093  0.97326285  0.94452997     1.49500
O213        O  0.00386103  0.00179220  0.90664726    -1.83800
O214        O  0.99637548  0.01567502  0.79477341    -0.74500
O215        O  0.10787886  0.95565249  0.90240435    -0.74300
O216        O  0.04518398  0.10768944  0.91933937    -0.73800
O217        O  0.04360143  0.95676406  0.81005983    -0.74500
O218        O  0.99456668  0.10628918  0.86125506    -0.74100
O219        O  0.10847496  0.01896534  0.94640298    -0.74700
O220        O  0.96117392  0.99457653  0.01061073    -0.74100
O221        O  0.01819167  0.88900248  0.89736034    -0.74800
O222        O  0.01901966  0.04554686  0.01084396    -0.74200
O223        O  0.95911076  0.90273679  0.94426828    -0.74700
O224        O  0.89200002  0.99231320  0.92177583    -0.74600
O225        O  0.90515417  0.03683339  0.86082404    -0.74400
C226        C  0.02392590  0.98385091  0.78119849     0.77400
C227        C  0.12919531  0.98459105  0.92794099     0.77900
C228        C  0.02349421  0.12786459  0.88663781     0.76900
C229        C  0.98714928  0.02330162  0.03175517     0.77200
C230        C  0.98612915  0.87432261  0.92374176     0.78400
C231        C  0.87696138  0.01740869  0.88873392     0.77400
C232        C  0.33236656  0.54605628  0.45093608     0.03400
C233        C  0.35661642  0.57726715  0.42241937    -0.12700
C234        C  0.40511282  0.57911340  0.42403384     0.00900
C235        C  0.42919615  0.55024987  0.45477965    -0.11300
C236        C  0.40552590  0.51913790  0.48342772     0.03400
C237        C  0.35698251  0.51731783  0.48179538    -0.10700
H238        H  0.33794458  0.59821436  0.39739039     0.09000
H239        H  0.46681132  0.55086440  0.45526615     0.06500
H240        H  0.33868980  0.49179411  0.50234916     0.06400
C241        C  0.68637685  0.45768383  0.36259517     0.03400
C242        C  0.66201151  0.48678480  0.33191961    -0.12700
C243        C  0.61342413  0.48629152  0.33117109     0.00900
C244        C  0.58943496  0.45609189  0.36062539    -0.11300
C245        C  0.61335988  0.42624792  0.39055738     0.03400
C246        C  0.66190199  0.42623091  0.39061885    -0.10700
H247        H  0.68064595  0.51172135  0.31093021     0.09000
H248        H  0.55182446  0.45685591  0.36129981     0.06500
H249        H  0.68049768  0.40379835  0.41436671     0.06400
C250        C  0.96142370  0.82630888  0.45052509     0.03400
C251        C  0.98715833  0.85045264  0.48430512    -0.12700
C252        C  0.98637619  0.89907375  0.48565415     0.00900
C253        C  0.95709378  0.92338867  0.45552378    -0.11300
C254        C  0.92947570  0.89993123  0.42329484     0.03400
C255        C  0.93150885  0.85128853  0.42092982    -0.10700
H256        H  0.00997164  0.83169107  0.50752421     0.09000
H257        H  0.95734365  0.96103174  0.45577346     0.06500
H258        H  0.91216883  0.83323331  0.39427841     0.06400
C259        C  0.05954595  0.17670541  0.36219885     0.03400
C260        C  0.08907456  0.15099956  0.39144188    -0.12700
C261        C  0.08971750  0.10235861  0.38905541     0.00900
C262        C  0.06127401  0.07965064  0.35708761    -0.11300
C263        C  0.03143331  0.10468672  0.32812626     0.03400
C264        C  0.03098162  0.15330204  0.33030976    -0.10700
H265        H  0.10971575  0.16864937  0.41738954     0.09000
H266        H  0.06066707  0.04200780  0.35634915     0.06500
H267        H  0.00633473  0.17266157  0.30953519     0.06400
C268        C  0.96398689  0.45701251  0.72423851     0.03400
C269        C  0.99424606  0.42737952  0.74858366    -0.12700
C270        C  0.99246636  0.42513820  0.79698033     0.00900
C271        C  0.96067418  0.45295281  0.82101165    -0.11300
C272        C  0.93069655  0.48298620  0.79727334     0.03400
C273        C  0.93190812  0.48442871  0.74882847    -0.10700
H274        H  0.02086184  0.40819194  0.73024793     0.09000
H275        H  0.96040663  0.45245101  0.85857773     0.06500
H276        H  0.90977879  0.50865783  0.73044322     0.06400
C277        C  0.04837023  0.54289015  0.07923653     0.03400
C278        C  0.08096842  0.51604087  0.05467016    -0.12700
C279        C  0.08137876  0.51659748  0.00618347     0.00900
C280        C  0.05117726  0.54626095  0.98240422    -0.11300
C281        C  0.02028116  0.57506190  0.00641275     0.03400
C282        C  0.01900498  0.57347819  0.05491809    -0.10700
H283        H  0.10435702  0.49307206  0.07307392     0.09000
H284        H  0.05099232  0.54616021  0.94483561     0.06500
H285        H  0.99350805  0.59396289  0.07346121     0.06400
Zn286      Zn  0.03779696  0.54098481  0.44975163     1.49700
Zn287      Zn  0.05692677  0.47278909  0.36411001     1.49400
Zn288      Zn  0.97198161  0.45316434  0.43099805     1.49100
Zn289      Zn  0.96871509  0.54173367  0.36369796     1.49500
O290        O  0.00884740  0.50222179  0.40205778    -1.83800
O291        O  0.10754008  0.53803213  0.44570607    -0.74500
O292        O  0.05403773  0.40258305  0.36710281    -0.74300
O293        O  0.97284649  0.45940455  0.50006159    -0.73800
O294        O  0.12081557  0.49171398  0.38596798    -0.74500
O295        O  0.01875696  0.51955117  0.51340589    -0.74100
O296        O  0.99575421  0.38895400  0.41497438    -0.74700
O297        O  0.90331670  0.51694391  0.36231636    -0.74100
O298        O  0.04987602  0.49206274  0.29732142    -0.74800
O299        O  0.90527080  0.45723258  0.41118503    -0.74200
O300        O  0.99212483  0.54354073  0.29787722    -0.74700
O301        O  0.96577549  0.60781542  0.38789413    -0.74600
O302        O  0.01834468  0.60832022  0.44417717    -0.74400
C303        C  0.13571803  0.51743307  0.41859189     0.77400
C304        C  0.02839183  0.37422435  0.38916069     0.77900
C305        C  0.99258360  0.48721444  0.52803671     0.76900
C306        C  0.88341606  0.48381914  0.38356352     0.77200
C307        C  0.02368948  0.52107308  0.27662671     0.78400
C308        C  0.98836340  0.62913090  0.41925794     0.77400
C309        C  0.02555763  0.48909725  0.19742287    -0.20000
C310        C  0.02959361  0.52784800  0.22639866    -0.06600
C311        C  0.03926982  0.57175948  0.20702725     0.14300
C312        C  0.04598021  0.57557610  0.15898202    -0.20100
C313        C  0.04246259  0.53666024  0.12989720    -0.06600
C314        C  0.03084124  0.49303389  0.14930765     0.14300
C315        C  0.02147530  0.45101822  0.11953495    -0.23400
H316        H  0.01719948  0.45570425  0.21253160     0.15600
H317        H  0.05403503  0.60907150  0.14396880     0.15600
C318        C  0.04361602  0.61431637  0.23703257    -0.23400
H319        H  0.00858603  0.42133914  0.14037542     0.05800
H320        H  0.05357892  0.43930750  0.10201461     0.09000
H321        H  0.99463579  0.45946910  0.09324527     0.09000
H322        H  0.07117741  0.60885202  0.26335604     0.09000
H323        H  0.01018945  0.62138736  0.25473525     0.09000
H324        H  0.05274081  0.64550337  0.21639565     0.05800
C325        C  0.97308309  0.43634460  0.59450767    -0.20000
C326        C  0.98503387  0.48087511  0.57851844    -0.06600
C327        C  0.98810045  0.51784730  0.61081249     0.14300
C328        C  0.98070828  0.50878443  0.65796586    -0.20100
C329        C  0.96994868  0.46406409  0.67381247    -0.06600
C330        C  0.96530736  0.42751479  0.64161699     0.14300
C331        C  0.95051803  0.37960156  0.65641469    -0.23400
H332        H  0.97000525  0.40802695  0.56999717     0.15600
H333        H  0.98372140  0.53679101  0.68286355     0.15600
C334        C  0.99773421  0.56715110  0.59618162    -0.23400
H335        H  0.94569993  0.35616737  0.62624994     0.05800
H336        H  0.91703943  0.38170024  0.67527594     0.09000
H337        H  0.97710369  0.36365063  0.67912615     0.09000
H338        H  0.97176931  0.57840126  0.57004814     0.09000
H339        H  0.03319484  0.56985037  0.58156640     0.09000
H340        H  0.99569269  0.59163476  0.62583969     0.05800
C341        C  0.03293101  0.24288742  0.41028676    -0.20000
C342        C  0.05373703  0.22736501  0.36923489    -0.06600
C343        C  0.06707006  0.25998692  0.33543302     0.14300
C344        C  0.05864751  0.30742160  0.34320384    -0.20100
C345        C  0.03666216  0.32328538  0.38381997    -0.06600
C346        C  0.02394204  0.29024626  0.41805182     0.14300
C347        C  0.00169539  0.30417677  0.46324409    -0.23400
H348        H  0.02291137  0.21753504  0.43612446     0.15600
H349        H  0.06879673  0.33222925  0.31692895     0.15600
C350        C  0.09091624  0.24486863  0.29152145    -0.23400
H351        H  0.99677854  0.27397332  0.48661371     0.05800
H352        H  0.96693304  0.31944075  0.45676506     0.09000
H353        H  0.02399865  0.32964155  0.48155471     0.09000
H354        H  0.06771912  0.22201782  0.27108012     0.09000
H355        H  0.12321331  0.22568397  0.30017649     0.09000
H356        H  0.10034408  0.27494378  0.26943230     0.05800
C357        C  0.93063647  0.74564901  0.44421161    -0.20000
C358        C  0.96893472  0.77568883  0.44309252    -0.06600
C359        C  0.01329511  0.75732241  0.43221322     0.14300
C360        C  0.01846244  0.70932856  0.42527088    -0.20100
C361        C  0.98029128  0.67936145  0.42674342    -0.06600
C362        C  0.93570714  0.69778113  0.43576702     0.14300
C363        C  0.89363567  0.66693060  0.43763723    -0.23400
H364        H  0.89659756  0.75977998  0.45169853     0.15600
H365        H  0.05243526  0.69514685  0.41752111     0.15600
C366        C  0.05492546  0.78819144  0.42520165    -0.23400
H367        H  0.86183335  0.68674434  0.44671950     0.05800
H368        H  0.89876418  0.63951747  0.46417715     0.09000
H369        H  0.88784989  0.65051704  0.40335112     0.09000
H370        H  0.06540768  0.80466592  0.45821945     0.09000
H371        H  0.04672270  0.81541506  0.39922923     0.09000
H372        H  0.08534648  0.76831727  0.41233265     0.05800
C373        C  0.76645818  0.45501283  0.33091272    -0.20000
C374        C  0.73697557  0.46358383  0.36862666    -0.06600
C375        C  0.75589185  0.47991683  0.41085225     0.14300
C376        C  0.80400372  0.48554453  0.41476568    -0.20100
C377        C  0.83336459  0.47672967  0.37719420    -0.06600
C378        C  0.81457108  0.46157994  0.33469194     0.14300
C379        C  0.84534607  0.45156586  0.29375772    -0.23400
H380        H  0.75171989  0.44312961  0.29846787     0.15600
H381        H  0.81880494  0.49779582  0.44706374     0.15600
C382        C  0.72547204  0.49351053  0.45115620    -0.23400
H383        H  0.82510759  0.43916648  0.26345902     0.05800
H384        H  0.87100206  0.42431639  0.30304173     0.09000
H385        H  0.86399046  0.48357180  0.28338025     0.09000
H386        H  0.70709748  0.46277454  0.46500030     0.09000
H387        H  0.69974363  0.51991243  0.43984975     0.09000
H388        H  0.74598760  0.50863227  0.48000265     0.05800
C389        C  0.26748987  0.52058200  0.40117242    -0.20000
C390        C  0.28209922  0.53897205  0.44363286    -0.06600
C391        C  0.24894955  0.55010929  0.47768870     0.14300
C392        C  0.20177657  0.54236023  0.46846049    -0.20100
C393        C  0.18664139  0.52370087  0.42589048    -0.06600
C394        C  0.22040007  0.51264999  0.39170628     0.14300
C395        C  0.20773997  0.49334340  0.34481689    -0.23400
H396        H  0.29337889  0.51216508  0.37524479     0.15600
H397        H  0.17657149  0.55102554  0.49491702     0.15600
C398        C  0.26314204  0.57137082  0.52321496    -0.23400
H399        H  0.23866165  0.48874832  0.32233459     0.05800
H400        H  0.18368915  0.51746664  0.32679221     0.09000
H401        H  0.19140238  0.45873463  0.34875412     0.09000
H402        H  0.28221121  0.60418852  0.51685501     0.09000
H403        H  0.28578710  0.54704020  0.54263355     0.09000
H404        H  0.23265480  0.57943432  0.54531085     0.05800
C405        C  0.03841516  0.00626435  0.65164391    -0.20000
C406        C  0.04862033  0.96155504  0.63530366    -0.06600
C407        C  0.05330030  0.92476394  0.66727268     0.14300
C408        C  0.04545217  0.93327453  0.71456053    -0.20100
C409        C  0.03314320  0.97768372  0.73084823    -0.06600
C410        C  0.03082040  0.01497758  0.69884357     0.14300
C411        C  0.02158210  0.06430733  0.71384445    -0.23400
H412        H  0.03557906  0.03453570  0.62701964     0.15600
H413        H  0.04835919  0.90478981  0.73889573     0.15600
C414        C  0.06793728  0.87690776  0.65195335    -0.23400
H415        H  0.02461688  0.08905868  0.68452366     0.05800
H416        H  0.04713811  0.07479282  0.74065101     0.09000
H417        H  0.98585505  0.06757266  0.72769782     0.09000
H418        H  0.10146990  0.87895169  0.63319582     0.09000
H419        H  0.04136543  0.86146576  0.62893767     0.09000
H420        H  0.07257974  0.85312112  0.68186565     0.05800
C421        C  0.81044902  0.04860308  0.84259858    -0.20000
C422        C  0.82586669  0.02453182  0.88231970    -0.06600
C423        C  0.79209536  0.00881436  0.91470134     0.14300
C424        C  0.74484859  0.01696916  0.90591782    -0.20100
C425        C  0.73008566  0.04027234  0.86603410    -0.05000
C426        C  0.76311559  0.05666115  0.83420350     0.14300
C427        C  0.74836841  0.08341101  0.79185725    -0.23400
H428        H  0.83549516  0.06129777  0.81772010     0.15600
H429        H  0.71896532  0.00483184  0.93028272     0.15600
C430        C  0.80473256  0.98383497  0.95888262    -0.23400
H431        H  0.77860914  0.09471340  0.77094305     0.05800
H432        H  0.72868066  0.11482490  0.80247143     0.09000
H433        H  0.72600679  0.06139481  0.76961587     0.09000
H434        H  0.82755290  0.00607630  0.98045634     0.09000
H435        H  0.82234787  0.95053290  0.95073537     0.09000
H436        H  0.77367950  0.97540548  0.97998929     0.05800
C437        C  0.00815952  0.74336060  0.93070823    -0.20000
C438        C  0.96447159  0.72699275  0.94410866    -0.06600
C439        C  0.92823190  0.75906459  0.95193476     0.14300
C440        C  0.93644752  0.80672311  0.94528258    -0.20100
C441        C  0.97997528  0.82331353  0.93066976    -0.06600
C442        C  0.01654596  0.79083270  0.92382301     0.14300
C443        C  0.06491572  0.80538615  0.91026438    -0.23400
H444        H  0.03589425  0.71852250  0.92500860     0.15600
H445        H  0.90840931  0.83113468  0.95112588     0.15600
C446        C  0.88130022  0.74329735  0.96851745    -0.23400
H447        H  0.08929994  0.77549514  0.90948100     0.05800
H448        H  0.07857055  0.83086232  0.93568481     0.09000
H449        H  0.06466597  0.82072808  0.87502868     0.09000
H450        H  0.88514914  0.72360647  0.00134399     0.09000
H451        H  0.86467218  0.72085761  0.94213519     0.09000
H452        H  0.85771320  0.77310611  0.97506281     0.05800
C453        C  0.97280088  0.00082413  0.16031093    -0.20000
C454        C  0.96694561  0.04597768  0.17778200    -0.06600
C455        C  0.96715969  0.08392014  0.14653217     0.14300
C456        C  0.97505422  0.07565273  0.09918456    -0.20100
C457        C  0.98037109  0.03040011  0.08196503    -0.06600
C458        C  0.97895486  0.99249223  0.11291844     0.14300
C459        C  0.98568598  0.94324701  0.09645054    -0.23400
H460        H  0.97331345  0.97173816  0.18413533     0.15600
H461        H  0.97555299  0.10468899  0.07527951     0.15600
C462        C  0.95738800  0.13314846  0.16134102    -0.23400
H463        H  0.98608371  0.91823464  0.12570822     0.05800
H464        H  0.01922981  0.94011644  0.07783453     0.09000
H465        H  0.95692452  0.93315783  0.07301057     0.09000
H466        H  0.98848213  0.15490815  0.15507590     0.09000
H467        H  0.94747972  0.13611052  0.19826029     0.09000
H468        H  0.92801579  0.14718976  0.14072289     0.05800
C469        C  0.25834124  0.00779026  0.93310436    -0.20000
C470        C  0.27554321  0.96436916  0.94689770    -0.06600
C471        C  0.24433965  0.92766184  0.95554659     0.14300
C472        C  0.19656994  0.93512485  0.94910057    -0.20100
C473        C  0.17946258  0.97868092  0.93537454    -0.06600
C474        C  0.21072470  0.01549894  0.92737390     0.14300
C475        C  0.19430123  0.06248292  0.91108695    -0.23400
H476        H  0.28249699  0.03572626  0.92626255     0.15600
H477        H  0.17239373  0.90707953  0.95535238     0.15600
C478        C  0.26109591  0.88128927  0.97301535    -0.23400
H479        H  0.22372563  0.08629717  0.90417521     0.05800
H480        H  0.17223311  0.07889234  0.93798207     0.09000
H481        H  0.17416212  0.05873490  0.87850817     0.09000
H482        H  0.28084361  0.88612737  0.00568411     0.09000
H483        H  0.28372389  0.86443261  0.94691807     0.09000
H484        H  0.23178392  0.85741261  0.98018428     0.05800
C485        C  0.08079278  0.24262472  0.85642917    -0.20000
C486        C  0.04388529  0.27375545  0.86320524    -0.06600
C487        C  0.00056960  0.25663532  0.87870884     0.14300
C488        C  0.99477122  0.20871595  0.88518148    -0.20100
C489        C  0.03156729  0.17770474  0.87827946    -0.06600
C490        C  0.07519156  0.19474879  0.86405825     0.14300
C491        C  0.11552121  0.16237463  0.85618802    -0.23400
H492        H  0.11408780  0.25589374  0.84523975     0.15600
H493        H  0.96162838  0.19541016  0.89680653     0.15600
C494        C  0.96103661  0.28882641  0.89074061    -0.23400
H495        H  0.14676560  0.18125155  0.84403441     0.05800
H496        H  0.10621393  0.13614515  0.82959217     0.09000
H497        H  0.12456298  0.14445923  0.88899276     0.09000
H498        H  0.94847376  0.30714609  0.85941142     0.09000
H499        H  0.97270399  0.31461295  0.91683460     0.09000
H500        H  0.93113826  0.26969266  0.90557491     0.05800
C501        C  0.26621968  0.07129151  0.45307418    -0.20000
C502        C  0.23712178  0.03277005  0.44725588    -0.06600
C503        C  0.25644842  0.98976275  0.43331041     0.14300
C504        C  0.30447715  0.98635274  0.42631342    -0.20100
C505        C  0.33344688  0.02503758  0.43153185    -0.06600
C506        C  0.31415153  0.06803929  0.44525692     0.14300
C507        C  0.34396583  0.11026739  0.45288874    -0.23400
H508        H  0.25119390  0.10418966  0.46343076     0.15600
H509        H  0.31942103  0.95354573  0.41552283     0.15600
C510        C  0.22659330  0.94796550  0.42344086    -0.23400
H511        H  0.32339442  0.14013907  0.46598225     0.05800
H512        H  0.36025912  0.12105992  0.41982041     0.09000
H513        H  0.37136089  0.10235137  0.47877221     0.09000
H514        H  0.19968957  0.95700014  0.39741286     0.09000
H515        H  0.20971977  0.93565049  0.45560793     0.09000
H516        H  0.24728350  0.91858085  0.40945598     0.05800
C517        C  0.46765312  0.07519436  0.20943575    -0.20000
C518        C  0.47979888  0.03063136  0.22543916    -0.06600
C519        C  0.48230779  0.99366361  0.19298239     0.14300
C520        C  0.47458392  0.00274766  0.14584978    -0.20100
C521        C  0.46386266  0.04746290  0.12983392    -0.06600
C522        C  0.45956739  0.08405920  0.16217264     0.14300
C523        C  0.44488039  0.13205454  0.14737444    -0.23400
H524        H  0.46483614  0.10348790  0.23402720     0.15600
H525        H  0.47734745  0.97462610  0.12102622     0.15600
C526        C  0.49162828  0.94417469  0.20740792    -0.23400
H527        H  0.44033067  0.15554918  0.17754414     0.05800
H528        H  0.41129426  0.13021791  0.12864684     0.09000
H529        H  0.47140949  0.14774090  0.12453362     0.09000
H530        H  0.46597888  0.93332627  0.23392367     0.09000
H531        H  0.52730941  0.94081506  0.22140313     0.09000
H532        H  0.48876242  0.91972658  0.17779256     0.05800
C533        C  0.70185973  0.94071299  0.35864811    -0.20000
C534        C  0.68559501  0.98401178  0.37418803    -0.06600
C535        C  0.71790501  0.02003639  0.38259885     0.14300
C536        C  0.76539017  0.01129888  0.37632075    -0.20100
C537        C  0.78160496  0.96762160  0.36202105    -0.06600
C538        C  0.74935958  0.93201104  0.35247697     0.14300
C539        C  0.76355413  0.88482678  0.33487106    -0.23400
H540        H  0.67731618  0.91309445  0.35175406     0.15600
H541        H  0.79025269  0.03860886  0.38328033     0.15600
C542        C  0.70281148  0.06808263  0.39700344    -0.23400
H543        H  0.74585967  0.87786437  0.30142570     0.05800
H544        H  0.75310329  0.85790971  0.36028437     0.09000
H545        H  0.80132997  0.88160851  0.32875481     0.09000
H546        H  0.68678184  0.06708027  0.43189292     0.09000
H547        H  0.67758520  0.08213579  0.37151257     0.09000
H548        H  0.73255417  0.09245548  0.39880114     0.05800
C549        C  0.57553181  0.96181333  0.59572746    -0.20000
C550        C  0.53130318  0.97265350  0.57835646    -0.06600
C551        C  0.49347739  0.97584035  0.60939548     0.14300
C552        C  0.50112426  0.96937231  0.65695935    -0.20100
C553        C  0.54540639  0.95910971  0.67451330    -0.06600
C554        C  0.58295035  0.95424363  0.64332198     0.14300
C555        C  0.63033900  0.93923485  0.65962404    -0.23400
H556        H  0.60429736  0.95860754  0.57179695     0.15600
H557        H  0.47236876  0.97310572  0.68083515     0.15600
C558        C  0.44524895  0.98781027  0.59296246    -0.23400
H559        H  0.65451751  0.93395073  0.63015323     0.05800
H560        H  0.62759950  0.90590874  0.67870560     0.09000
H561        H  0.64580652  0.96587681  0.68252256     0.09000
H562        H  0.43193007  0.95999393  0.56998120     0.09000
H563        H  0.44576751  0.02126925  0.57390830     0.09000
H564        H  0.42056944  0.99137042  0.62227321     0.05800
C565        C  0.48883549  0.79851206  0.41519287    -0.20000
C566        C  0.48418003  0.82731766  0.37634615    -0.06600
C567        C  0.47186045  0.80764726  0.33318950     0.14300
C568        C  0.46413199  0.75958474  0.33019737    -0.20100
C569        C  0.46880862  0.73076395  0.36913633    -0.06600
C570        C  0.48214395  0.75043756  0.41205591     0.14300
C571        C  0.49173758  0.72090050  0.45414869    -0.23400
H572        H  0.49878450  0.81369518  0.44807821     0.15600
H573        H  0.45456117  0.74428973  0.29726656     0.15600
C574        C  0.46558295  0.83720892  0.29058736    -0.23400
H575        H  0.50554346  0.74183285  0.48335534     0.05800
H576        H  0.51789628  0.69389344  0.44559880     0.09000
H577        H  0.45947705  0.70415672  0.46643463     0.09000
H578        H  0.49894531  0.85377914  0.28109577     0.09000
H579        H  0.43911923  0.86444871  0.29726294     0.09000
H580        H  0.45388188  0.81636772  0.26041466     0.05800
C581        C  0.55654902  0.19569778  0.47038952    -0.20000
C582        C  0.53392466  0.18102481  0.42963280    -0.06600
C583        C  0.51929403  0.21515928  0.39719832     0.14300
C584        C  0.52720492  0.26226227  0.40670717    -0.20100
C585        C  0.54914944  0.27655853  0.44754536    -0.06600
C586        C  0.56425899  0.24299934  0.47969153     0.14300
C587        C  0.58942595  0.25704952  0.52318647    -0.23400
H588        H  0.56811690  0.17006791  0.49531547     0.15600
H589        H  0.51605635  0.28839257  0.38206991     0.15600
C590        C  0.49644902  0.20278036  0.35183134    -0.23400
H591        H  0.59983052  0.22643715  0.54415009     0.05800
H592        H  0.56667892  0.27931642  0.54484315     0.09000
H593        H  0.62125046  0.27662456  0.51401799     0.09000
H594        H  0.46221499  0.18649951  0.35823848     0.09000
H595        H  0.51904347  0.17872502  0.33193902     0.09000
H596        H  0.49024190  0.23386312  0.32992592     0.05800
C597        C  0.55085360  0.26152672  0.97734299    -0.20000
C598        C  0.54426126  0.23281570  0.93862733    -0.06600
C599        C  0.53057694  0.25282719  0.89595909     0.14300
C600        C  0.52520649  0.30110670  0.89290629    -0.20100
C601        C  0.53154548  0.32976723  0.93165118    -0.06600
C602        C  0.54447464  0.30978483  0.97446968     0.14300
C603        C  0.55281176  0.33917827  0.01683148    -0.23400
H604        H  0.56087945  0.24598673  0.01002984     0.15600
H605        H  0.51480800  0.31656188  0.86027413     0.15600
C606        C  0.51920103  0.22351822  0.85416156    -0.23400
H607        H  0.56488400  0.31800241  0.04664284     0.05800
H608        H  0.52020921  0.35676048  0.02734731     0.09000
H609        H  0.57976854  0.36558112  0.00931965     0.09000
H610        H  0.49231463  0.19757070  0.86331480     0.09000
H611        H  0.55063174  0.20546871  0.84136238     0.09000
H612        H  0.50556830  0.24485874  0.82513756     0.05800
C613        C  0.24996181  0.47914764  0.90051644    -0.20000
C614        C  0.23366735  0.46309650  0.94327755    -0.06600
C615        C  0.26547401  0.45487597  0.97951084     0.14300
C616        C  0.31284893  0.46357336  0.97221238    -0.20100
C617        C  0.32947017  0.48047185  0.92956424    -0.06600
C618        C  0.29721596  0.48799509  0.89299804     0.14300
C619        C  0.31173727  0.50439252  0.84555179    -0.23400
H620        H  0.22523582  0.48527254  0.87284926     0.15600
H621        H  0.33701899  0.45731856  0.00028768     0.15600
C622        C  0.24977576  0.43567006  0.02542603    -0.23400
H623        H  0.28202081  0.50579970  0.82108363     0.05800
H624        H  0.33785400  0.48020307  0.83076850     0.09000
H625        H  0.32623129  0.53996967  0.84773125     0.09000
H626        H  0.23142272  0.40228309  0.01993143     0.09000
H627        H  0.22615128  0.46053376  0.04285951     0.09000
H628        H  0.27948528  0.42915980  0.04906164     0.05800
C629        C  0.50721229  0.76431213  0.88661131    -0.20000
C630        C  0.46448247  0.77883171  0.86859580    -0.06600
C631        C  0.42985577  0.74577451  0.85912304     0.14300
C632        C  0.43892385  0.69871560  0.86784476    -0.20100
C633        C  0.48186634  0.68365640  0.88587332    -0.06600
C634        C  0.51653377  0.71734688  0.89549966     0.14300
C635        C  0.56377718  0.70475816  0.91424333    -0.23400
H636        H  0.53350193  0.79017919  0.89389422     0.15600
H637        H  0.41210419  0.67353405  0.86030854     0.15600
C638        C  0.38389954  0.75988475  0.83854599    -0.23400
H639        H  0.58643534  0.73566398  0.91799885     0.05800
H640        H  0.58142660  0.68031357  0.89026982     0.09000
H641        H  0.56034382  0.68890424  0.94909667     0.09000
H642        H  0.38966729  0.77824029  0.80524974     0.09000
H643        H  0.36507095  0.78315948  0.86270813     0.09000
H644        H  0.36143812  0.72938699  0.83164912     0.05800
C645        C  0.76195908  0.49508816  0.87165738    -0.20000
C646        C  0.77860270  0.53924545  0.85967663    -0.06600
C647        C  0.74689045  0.57647458  0.85502763     0.14300
C648        C  0.69968230  0.56897019  0.86441427    -0.20100
C649        C  0.68314796  0.52490410  0.87679357    -0.06600
C650        C  0.71464026  0.48732822  0.87993922     0.14300
C651        C  0.69895557  0.43938098  0.89366292    -0.23400
H652        H  0.78633139  0.46664543  0.87532434     0.15600
H653        H  0.67533027  0.59749350  0.86124980     0.15600
C654        C  0.76218925  0.62357520  0.83829626    -0.23400
H655        H  0.72859585  0.41488683  0.89674014     0.05800
H656        H  0.67498987  0.42524534  0.86712993     0.09000
H657        H  0.68110488  0.44079399  0.92769655     0.09000
H658        H  0.77999487  0.62001577  0.80439387     0.09000
H659        H  0.78602601  0.63989654  0.86356359     0.09000
H660        H  0.73228242  0.64747437  0.83359472     0.05800
C661        C  0.46512781  0.43195121  0.66536836    -0.20000
C662        C  0.47134969  0.46964083  0.63527045    -0.06600
C663        C  0.48401912  0.51343495  0.65368822     0.14300
C664        C  0.48872535  0.51860517  0.70180887    -0.20100
C665        C  0.48255587  0.48089179  0.73172739    -0.06600
C666        C  0.47070082  0.43704009  0.71342932     0.14300
C667        C  0.46279448  0.39592466  0.74464774    -0.23400
H668        H  0.45574338  0.39844928  0.65114393     0.15600
H669        H  0.49836746  0.55199353  0.71615425     0.15600
C670        C  0.49486141  0.55424886  0.62284222    -0.23400
H671        H  0.45229833  0.36466524  0.72475378     0.05800
H672        H  0.43484665  0.40405977  0.76983650     0.09000
H673        H  0.49513611  0.38740498  0.76371276     0.09000
H674        H  0.46338130  0.56579869  0.60406784     0.09000
H675        H  0.52215935  0.54444037  0.59753839     0.09000
H676        H  0.50772641  0.58440479  0.64304701     0.05800
C677        C  0.55699094  0.57964001  0.15156919    -0.20000
C678        C  0.54710782  0.54259125  0.18132620    -0.06600
C679        C  0.52811276  0.50137355  0.16293418     0.14300
C680        C  0.52121114  0.49757048  0.11498766    -0.20100
C681        C  0.53227052  0.53406403  0.08457745    -0.06600
C682        C  0.54987635  0.57609341  0.10348273     0.14300
C683        C  0.56018129  0.61792906  0.07388601    -0.23400
H684        H  0.57042312  0.61157061  0.16618256     0.15600
H685        H  0.50721533  0.46553329  0.10121030     0.15600
C686        C  0.51348479  0.46186526  0.19388735    -0.23400
H687        H  0.57075343  0.64829816  0.09508750     0.05800
H688        H  0.52875859  0.62803240  0.05401602     0.09000
H689        H  0.58915794  0.61017666  0.04981950     0.09000
H690        H  0.48812133  0.47455253  0.21992528     0.09000
H691        H  0.54402765  0.44693487  0.21188088     0.09000
H692        H  0.49682484  0.43345044  0.17395045     0.05800
loop_ 
_geom_bond_atom_site_label_1 
_geom_bond_atom_site_label_2 
_geom_bond_distance 
_geom_bond_site_symmetry_2 
_ccdc_geom_bond_type 
C1            C2   1.406       .  A
C1            C6   1.409       .  A
C1          C678   1.482       .  S
C2            C3   1.401       .  A
C2            H7   1.084       .  S
C3            C4   1.399       .  A
C3           C91   1.472       .  S
C4            C5   1.399       .  A
C4            H8   1.085       .  S
C5            C6   1.402       .  A
C5          C243   1.475       .  S
C6            H9   1.083       .  S
C10          C11   1.410       .  A
C10          C15   1.407       .  A
C10         C662   1.483       .  S
C11          C12   1.404       .  A
C11          H16   1.084       .  S
C12          C13   1.401       .  A
C12          C80   1.478       .  S
C13          C14   1.400       .  A
C13          H17   1.085       .  S
C14          C15   1.399       .  A
C14         C236   1.474       .  S
C15          H18   1.083       .  S
C19          C20   1.410       .  A
C19          C24   1.408       .  A
C19         C646   1.485       .  S
C20          C21   1.403       .  A
C20          H25   1.084       .  S
C21          C22   1.399       .  A
C21         C272   1.476       .  S
C22          C23   1.399       .  A
C22          H26   1.085       .  S
C23          C24   1.400       .  A
C23         C184   1.474       .  S
C24          H27   1.083       .  S
C28          C29   1.406       .  A
C28          C33   1.406       .  A
C28         C630   1.477       .  S
C29          C30   1.400       .  A
C29          H34   1.084       .  S
C30          C31   1.402       .  A
C30         C100   1.476       .  S
C31          C32   1.401       .  A
C31          H35   1.085       .  S
C32          C33   1.401       .  A
C32         C166   1.475       .  S
C33          H36   1.084       .  S
C37          C38   1.407       .  A
C37          C42   1.409       .  A
C37         C614   1.482       .  S
C38          C39   1.401       .  A
C38          H43   1.083       .  S
C39          C40   1.400       .  A
C39         C279   1.475   1_556  S
C40          C41   1.400       .  A
C40          H44   1.085       .  S
C41          C42   1.402       .  A
C41         C157   1.475       .  S
C42          H45   1.084       .  S
C46          C47   1.408       .  A
C46          C51   1.408       .  A
C46         C598   1.482       .  S
C47          C48   1.401       .  A
C47          H52   1.083       .  S
C48          C49   1.399       .  A
C48         C193   1.474       .  S
C49          C50   1.400       .  A
C49          H53   1.085       .  S
C50          C51   1.401       .  A
C50         C116   1.474   1_556  S
C51          H54   1.084       .  S
Zn55         O59   1.958       .  S
Zn55         O60   2.025       .  S
Zn55         O64   2.021   1_556  S
Zn55         O71   2.014       .  S
Zn56         O59   1.957       .  S
Zn56         O61   2.003       .  S
Zn56         O63   2.015       .  S
Zn56         O67   2.013       .  S
Zn57         O59   1.963       .  S
Zn57         O62   2.025   1_556  S
Zn57         O65   2.023       .  S
Zn57         O68   2.031       .  S
Zn58         O59   1.957       .  S
Zn58         O66   2.011       .  S
Zn58         O69   2.019       .  S
Zn58         O70   2.010       .  S
O60          C72   1.274       .  A
O61          C73   1.272       .  A
O62          C74   1.276       .  A
O63          C72   1.273       .  A
O64          C74   1.273       .  A
O65          C73   1.274       .  A
O66          C75   1.272       .  A
O67          C76   1.272       .  A
O68          C75   1.276       .  A
O69          C76   1.272       .  A
O70          C77   1.273       .  A
O71          C77   1.272       .  A
C72         C649   1.480       .  S
C73         C601   1.477       .  S
C74         C681   1.494       .  S
C75         C617   1.494       .  S
C76         C665   1.473       .  S
C77         C633   1.492       .  S
C78          C79   1.409       .  A
C78          C83   1.407       .  A
C78         C585   1.481       .  S
C79          C80   1.405       .  A
C79          H84   1.083       .  S
C80          C81   1.400       .  A
C81          C82   1.399       .  A
C81          H85   1.085       .  S
C82          C83   1.400       .  A
C82         C245   1.475       .  S
C83          H86   1.084       .  S
C87          C88   1.409       .  A
C87          C92   1.407       .  A
C87         C569   1.483       .  S
C88          C89   1.402       .  A
C88          H93   1.083       .  S
C89          C90   1.398       .  A
C89         C234   1.474       .  S
C90          C91   1.398       .  A
C90          H94   1.085       .  S
C91          C92   1.400       .  A
C92          H95   1.084       .  S
C96          C97   1.411       .  A
C96         C101   1.411       .  A
C96         C553   1.488       .  S
C97          C98   1.403       .  A
C97         H102   1.083   1_565  S
C98          C99   1.398       .  A
C98         C195   1.476   1_565  S
C99         C100   1.397       .  A
C99         H103   1.085       .  S
C100        C101   1.402       .  A
C101        H104   1.084       .  S
C105        C106   1.409       .  A
C105        C110   1.406       .  A
C105        C537   1.481       .  S
C106        C107   1.403       .  A
C106        H111   1.084       .  S
C107        C108   1.401       .  A
C107        C254   1.477       .  S
C108        C109   1.401       .  A
C108        H112   1.085       .  S
C109        C110   1.400       .  A
C109        C177   1.476   1_565  S
C110        H113   1.084   1_565  S
C114        C115   1.410       .  A
C114        C119   1.410       .  A
C114        C521   1.488       .  S
C115        C116   1.404       .  A
C115        H120   1.083       .  S
C116        C117   1.397   1_554  A
C117        C118   1.397   1_556  A
C117        H121   1.085       .  S
C118        C119   1.402       .  A
C118        C168   1.474   1_544  S
C119        H122   1.084       .  S
C123        C124   1.408       .  A
C123        C128   1.407       .  A
C123        C502   1.481       .  S
C124        C125   1.401       .  A
C124        H129   1.083   1_545  S
C125        C126   1.401       .  A
C125        C202   1.476   1_545  S
C126        C127   1.400       .  A
C126        H130   1.085       .  S
C127        C128   1.400       .  A
C127        C261   1.474       .  S
C128        H131   1.084       .  S
Zn132       O136   1.961       .  S
Zn132       O137   2.017       .  S
Zn132       O141   2.016       .  S
Zn132       O148   2.034       .  S
Zn133       O136   1.965       .  S
Zn133       O138   2.033       .  S
Zn133       O140   2.031       .  S
Zn133       O144   2.013       .  S
Zn134       O136   1.957   1_565  S
Zn134       O139   2.008       .  S
Zn134       O142   2.013       .  S
Zn134       O145   2.007       .  S
Zn135       O136   1.963   1_565  S
Zn135       O143   2.024       .  S
Zn135       O146   2.026       .  S
Zn135       O147   2.018       .  S
O137        C149   1.273       .  A
O138        C150   1.275   1_545  A
O139        C151   1.272   1_565  A
O140        C149   1.275       .  A
O141        C151   1.273       .  A
O142        C150   1.272       .  A
O143        C152   1.273       .  A
O144        C153   1.273   1_545  A
O145        C152   1.272       .  A
O146        C153   1.275       .  A
O147        C154   1.273   1_565  A
O148        C154   1.275       .  A
C149        C582   1.494       .  S
C150        C550   1.483       .  S
C151        C505   1.476       .  S
C152        C566   1.478       .  S
C153        C534   1.484       .  S
C154        C518   1.493       .  S
C155        C156   1.408       .  A
C155        C160   1.408       .  A
C155        C486   1.485       .  S
C156        C157   1.403       .  A
C156        H161   1.084       .  S
C157        C158   1.400       .  A
C158        C159   1.398       .  A
C158        H162   1.085       .  S
C159        C160   1.401       .  A
C159        C270   1.475   1_455  S
C160        H163   1.084       .  S
C164        C165   1.408       .  A
C164        C169   1.407       .  A
C164        C470   1.479       .  S
C165        C166   1.402       .  A
C165        H170   1.083       .  S
C166        C167   1.400       .  A
C167        C168   1.401       .  A
C167        H171   1.085       .  S
C168        C169   1.399       .  A
C169        H172   1.084   1_566  S
C173        C174   1.410       .  A
C173        C178   1.410       .  A
C173        C454   1.487       .  S
C174        C175   1.402       .  A
C174        H179   1.084   1_655  S
C175        C176   1.400       .  A
C175        C263   1.475   1_655  S
C176        C177   1.397       .  A
C176        H180   1.085       .  S
C177        C178   1.401       .  A
C178        H181   1.084       .  S
C182        C183   1.409       .  A
C182        C187   1.409       .  A
C182        C438   1.485       .  S
C183        C184   1.403       .  A
C183        H188   1.083       .  S
C184        C185   1.398       .  A
C185        C186   1.398       .  A
C185        H189   1.085       .  S
C186        C187   1.402       .  A
C186        C281   1.475   1_656  S
C187        H190   1.084   1_656  S
C191        C192   1.405       .  A
C191        C196   1.407       .  A
C191        C425   1.478       .  S
C192        C193   1.400       .  A
C192        H197   1.084       .  S
C193        C194   1.400       .  A
C194        C195   1.401       .  A
C194        H198   1.085       .  S
C195        C196   1.403       .  A
C196        H199   1.084   1_545  S
C200        C201   1.409       .  A
C200        C205   1.410       .  A
C200        C406   1.484       .  S
C201        C202   1.401       .  A
C201        H206   1.084   1_565  S
C202        C203   1.399       .  A
C203        C204   1.400       .  A
C203        H207   1.085       .  S
C204        C205   1.402       .  A
C204        C252   1.477   1_455  S
C205        H208   1.083   1_455  S
Zn209       O213   1.961   1_655  S
Zn209       O214   2.019       .  S
Zn209       O218   2.024       .  S
Zn209       O225   2.026       .  S
Zn210       O213   1.961   1_565  S
Zn210       O215   2.013       .  S
Zn210       O217   2.018       .  S
Zn210       O221   2.012       .  S
Zn211       O213   1.963       .  S
Zn211       O216   2.019       .  S
Zn211       O219   2.012       .  S
Zn211       O222   2.027   1_556  S
Zn212       O213   1.957   1_665  S
Zn212       O220   2.011   1_556  S
Zn212       O223   2.035       .  S
Zn212       O224   2.018       .  S
O214        C226   1.274   1_645  A
O215        C227   1.272       .  A
O216        C228   1.272       .  A
O217        C226   1.274       .  A
O218        C228   1.273   1_655  A
O219        C227   1.273   1_545  A
O220        C229   1.273   1_565  A
O221        C230   1.272   1_455  A
O222        C229   1.274   1_455  A
O223        C230   1.275       .  A
O224        C231   1.273   1_565  A
O225        C231   1.276       .  A
C226        C409   1.489       .  S
C227        C473   1.475       .  S
C228        C489   1.475       .  S
C229        C457   1.477       .  S
C230        C441   1.494       .  S
C231        C422   1.499       .  S
C232        C233   1.407       .  A
C232        C237   1.407       .  A
C232        C390   1.479       .  S
C233        C234   1.400       .  A
C233        H238   1.084       .  S
C234        C235   1.400       .  A
C235        C236   1.399       .  A
C235        H239   1.085       .  S
C236        C237   1.402       .  A
C237        H240   1.084       .  S
C241        C242   1.407       .  A
C241        C246   1.407       .  A
C241        C374   1.479       .  S
C242        C243   1.401       .  A
C242        H247   1.084       .  S
C243        C244   1.401       .  A
C244        C245   1.400       .  A
C244        H248   1.085       .  S
C245        C246   1.400       .  A
C246        H249   1.084       .  S
C250        C251   1.410       .  A
C250        C255   1.410       .  A
C250        C358   1.490       .  S
C251        C252   1.402       .  A
C251        H256   1.083   1_655  S
C252        C253   1.399       .  A
C253        C254   1.399       .  A
C253        H257   1.085       .  S
C254        C255   1.404       .  A
C255        H258   1.084       .  S
C259        C260   1.408       .  A
C259        C264   1.408       .  A
C259        C342   1.483       .  S
C260        C261   1.403       .  A
C260        H265   1.084       .  S
C261        C262   1.398       .  A
C262        C263   1.399       .  A
C262        H266   1.085       .  S
C263        C264   1.402       .  A
C264        H267   1.084       .  S
C268        C269   1.408       .  A
C268        C273   1.408       .  A
C268        C329   1.481       .  S
C269        C270   1.400       .  A
C269        H274   1.083   1_655  S
C270        C271   1.401       .  A
C271        C272   1.401       .  A
C271        H275   1.085       .  S
C272        C273   1.400       .  A
C273        H276   1.084       .  S
C277        C278   1.408       .  A
C277        C282   1.408       .  A
C277        C313   1.484       .  S
C278        C279   1.400       .  A
C278        H283   1.083       .  S
C279        C280   1.399   1_554  A
C280        C281   1.400   1_556  A
C280        H284   1.085       .  S
C281        C282   1.402       .  A
C282        H285   1.084   1_455  S
Zn286       O290   1.960       .  S
Zn286       O291   2.016       .  S
Zn286       O295   2.016       .  S
Zn286       O302   2.025       .  S
Zn287       O290   1.959       .  S
Zn287       O292   2.027       .  S
Zn287       O294   2.023       .  S
Zn287       O298   2.017       .  S
Zn288       O290   1.959   1_655  S
Zn288       O293   2.002       .  S
Zn288       O296   2.025       .  S
Zn288       O299   2.010       .  S
Zn289       O290   1.964   1_655  S
Zn289       O297   2.018       .  S
Zn289       O300   2.018       .  S
Zn289       O301   2.030       .  S
O291        C303   1.274       .  A
O292        C304   1.274       .  A
O293        C305   1.273       .  A
O294        C303   1.273       .  A
O295        C305   1.273   1_455  A
O296        C304   1.273   1_655  A
O297        C306   1.273       .  A
O298        C307   1.274       .  A
O299        C306   1.272       .  A
O300        C307   1.274   1_655  A
O301        C308   1.274       .  A
O302        C308   1.274   1_455  A
C303        C393   1.495       .  S
C304        C345   1.495       .  S
C305        C326   1.485       .  S
C306        C377   1.470       .  S
C307        C310   1.474       .  S
C308        C361   1.481       .  S
C309        C310   1.400       .  A
C309        C314   1.403       .  A
C309        H316   1.084       .  S
C310        C311   1.412       .  A
C311        C312   1.405       .  A
C311        C318   1.507       .  S
C312        C313   1.405       .  A
C312        H317   1.084       .  S
C313        C314   1.418       .  A
C314        C315   1.509       .  S
C315        H319   1.111       .  S
C315        H320   1.107       .  S
C315        H321   1.110   1_455  S
C318        H322   1.110       .  S
C318        H323   1.110       .  S
C318        H324   1.111       .  S
C325        C326   1.408       .  A
C325        C330   1.402       .  A
C325        H332   1.084       .  S
C326        C327   1.418       .  A
C327        C328   1.403       .  A
C327        C334   1.509       .  S
C328        C329   1.403       .  A
C328        H333   1.084       .  S
C329        C330   1.411       .  A
C330        C331   1.508       .  S
C331        H335   1.111       .  S
C331        H336   1.110       .  S
C331        H337   1.108       .  S
C334        H338   1.111       .  S
C334        H339   1.109   1_655  S
C334        H340   1.111       .  S
C341        C342   1.402       .  A
C341        C346   1.406       .  A
C341        H348   1.084       .  S
C342        C343   1.410       .  A
C343        C344   1.406       .  A
C343        C350   1.507       .  S
C344        C345   1.409       .  A
C344        H349   1.084       .  S
C345        C346   1.422       .  A
C346        C347   1.508       .  S
C347        H351   1.111   1_455  S
C347        H352   1.110   1_455  S
C347        H353   1.110       .  S
C350        H354   1.109       .  S
C350        H355   1.110       .  S
C350        H356   1.111       .  S
C357        C358   1.405       .  A
C357        C362   1.408       .  A
C357        H364   1.084       .  S
C358        C359   1.419   1_655  A
C359        C360   1.405       .  A
C359        C366   1.509       .  S
C360        C361   1.401   1_455  A
C360        H365   1.084       .  S
C361        C362   1.414       .  A
C362        C363   1.507       .  S
C363        H367   1.111       .  S
C363        H368   1.110       .  S
C363        H369   1.110       .  S
C366        H370   1.107       .  S
C366        H371   1.111       .  S
C366        H372   1.111       .  S
C373        C374   1.404       .  A
C373        C378   1.405       .  A
C373        H380   1.084       .  S
C374        C375   1.416       .  A
C375        C376   1.402       .  A
C375        C382   1.509       .  S
C376        C377   1.399       .  A
C376        H381   1.085       .  S
C377        C378   1.411       .  A
C378        C379   1.506       .  S
C379        H383   1.111       .  S
C379        H384   1.110       .  S
C379        H385   1.110       .  S
C382        H386   1.108       .  S
C382        H387   1.111       .  S
C382        H388   1.111       .  S
C389        C390   1.401       .  A
C389        C394   1.404       .  A
C389        H396   1.085       .  S
C390        C391   1.408       .  A
C391        C392   1.404       .  A
C391        C398   1.507       .  S
C392        C393   1.411       .  A
C392        H397   1.084       .  S
C393        C394   1.422       .  A
C394        C395   1.509       .  S
C395        H399   1.111       .  S
C395        H400   1.110       .  S
C395        H401   1.110       .  S
C398        H402   1.110       .  S
C398        H403   1.109       .  S
C398        H404   1.111       .  S
C405        C406   1.403   1_545  A
C405        C410   1.403       .  A
C405        H412   1.084       .  S
C406        C407   1.412       .  A
C407        C408   1.406       .  A
C407        C414   1.508       .  S
C408        C409   1.408       .  A
C408        H413   1.084       .  S
C409        C410   1.419   1_565  A
C410        C411   1.509       .  S
C411        H415   1.111       .  S
C411        H416   1.111       .  S
C411        H417   1.109   1_455  S
C414        H418   1.110       .  S
C414        H419   1.108       .  S
C414        H420   1.111       .  S
C421        C422   1.412       .  A
C421        C426   1.405       .  A
C421        H428   1.083       .  S
C422        C423   1.425       .  A
C423        C424   1.405       .  A
C423        C430   1.509   1_545  S
C424        C425   1.399       .  A
C424        H429   1.085       .  S
C425        C426   1.407       .  A
C426        C427   1.506       .  S
C427        H431   1.111       .  S
C427        H432   1.111       .  S
C427        H433   1.110       .  S
C430        H434   1.110   1_565  S
C430        H435   1.110       .  S
C430        H436   1.111       .  S
C437        C438   1.401   1_455  A
C437        C442   1.404       .  A
C437        H444   1.085       .  S
C438        C439   1.412       .  A
C439        C440   1.407       .  A
C439        C446   1.507       .  S
C440        C441   1.409       .  A
C440        H445   1.084       .  S
C441        C442   1.422   1_655  A
C442        C443   1.509       .  S
C443        H447   1.111       .  S
C443        H448   1.111       .  S
C443        H449   1.110       .  S
C446        H450   1.110   1_556  S
C446        H451   1.109       .  S
C446        H452   1.111       .  S
C453        C454   1.405       .  A
C453        C458   1.401   1_545  A
C453        H460   1.085   1_545  S
C454        C455   1.418       .  A
C455        C456   1.406       .  A
C455        C462   1.507       .  S
C456        C457   1.404       .  A
C456        H461   1.085       .  S
C457        C458   1.412   1_545  A
C458        C459   1.509       .  S
C459        H463   1.111       .  S
C459        H464   1.110   1_655  S
C459        H465   1.109       .  S
C462        H466   1.110       .  S
C462        H467   1.107       .  S
C462        H468   1.111       .  S
C469        C470   1.403   1_545  A
C469        C474   1.400       .  A
C469        H476   1.084       .  S
C470        C471   1.413       .  A
C471        C472   1.406       .  A
C471        C478   1.507       .  S
C472        C473   1.405       .  A
C472        H477   1.084       .  S
C473        C474   1.413   1_565  A
C474        C475   1.509       .  S
C475        H479   1.111       .  S
C475        H480   1.109       .  S
C475        H481   1.111       .  S
C478        H482   1.110   1_556  S
C478        H483   1.108       .  S
C478        H484   1.111       .  S
C485        C486   1.404       .  A
C485        C490   1.407       .  A
C485        H492   1.084       .  S
C486        C487   1.417       .  A
C487        C488   1.404   1_455  A
C487        C494   1.509   1_455  S
C488        C489   1.400   1_655  A
C488        H493   1.084       .  S
C489        C490   1.413       .  A
C490        C491   1.507       .  S
C491        H495   1.111       .  S
C491        H496   1.111       .  S
C491        H497   1.110       .  S
C494        H498   1.108       .  S
C494        H499   1.111       .  S
C494        H500   1.111       .  S
C501        C502   1.403       .  A
C501        C506   1.404       .  A
C501        H508   1.084       .  S
C502        C503   1.416   1_545  A
C503        C504   1.403       .  A
C503        C510   1.509       .  S
C504        C505   1.403   1_565  A
C504        H509   1.084       .  S
C505        C506   1.414       .  A
C506        C507   1.508       .  S
C507        H511   1.111       .  S
C507        H512   1.109       .  S
C507        H513   1.111       .  S
C510        H514   1.110       .  S
C510        H515   1.108       .  S
C510        H516   1.111       .  S
C517        C518   1.408       .  A
C517        C522   1.408       .  A
C517        H524   1.084       .  S
C518        C519   1.420   1_545  A
C519        C520   1.404   1_565  A
C519        C526   1.509       .  S
C520        C521   1.403       .  A
C520        H525   1.085   1_545  S
C521        C522   1.414       .  A
C522        C523   1.507       .  S
C523        H527   1.111       .  S
C523        H528   1.110       .  S
C523        H529   1.108       .  S
C526        H530   1.110       .  S
C526        H531   1.109       .  S
C526        H532   1.111       .  S
C533        C534   1.405       .  A
C533        C538   1.403       .  A
C533        H540   1.084       .  S
C534        C535   1.417   1_565  A
C535        C536   1.404       .  A
C535        C542   1.509       .  S
C536        C537   1.404   1_545  A
C536        H541   1.084       .  S
C537        C538   1.413       .  A
C538        C539   1.507       .  S
C539        H543   1.110       .  S
C539        H544   1.110       .  S
C539        H545   1.107       .  S
C542        H546   1.109       .  S
C542        H547   1.110       .  S
C542        H548   1.111       .  S
C549        C550   1.405       .  A
C549        C554   1.408       .  A
C549        H556   1.084       .  S
C550        C551   1.415       .  A
C551        C552   1.403       .  A
C551        C558   1.508       .  S
C552        C553   1.404       .  A
C552        H557   1.084       .  S
C553        C554   1.415       .  A
C554        C555   1.508       .  S
C555        H559   1.111       .  S
C555        H560   1.110       .  S
C555        H561   1.107       .  S
C558        H562   1.109       .  S
C558        H563   1.110   1_565  S
C558        H564   1.111       .  S
C565        C566   1.402       .  A
C565        C570   1.402       .  A
C565        H572   1.084       .  S
C566        C567   1.414       .  A
C567        C568   1.406       .  A
C567        C574   1.507       .  S
C568        C569   1.404       .  A
C568        H573   1.084       .  S
C569        C570   1.416       .  A
C570        C571   1.509       .  S
C571        H575   1.111       .  S
C571        H576   1.110       .  S
C571        H577   1.108       .  S
C574        H578   1.110       .  S
C574        H579   1.110       .  S
C574        H580   1.111       .  S
C581        C582   1.410       .  A
C581        C586   1.407       .  A
C581        H588   1.083       .  S
C582        C583   1.422       .  A
C583        C584   1.404       .  A
C583        C590   1.509       .  S
C584        C585   1.400       .  A
C584        H589   1.084       .  S
C585        C586   1.409       .  A
C586        C587   1.506       .  S
C587        H591   1.111       .  S
C587        H592   1.110       .  S
C587        H593   1.111       .  S
C590        H594   1.110       .  S
C590        H595   1.110       .  S
C590        H596   1.111       .  S
C597        C598   1.404       .  A
C597        C602   1.405       .  A
C597        H604   1.084   1_556  S
C598        C599   1.416       .  A
C599        C600   1.402       .  A
C599        C606   1.509       .  S
C600        C601   1.402       .  A
C600        H605   1.084       .  S
C601        C602   1.414       .  A
C602        C603   1.507   1_556  S
C603        H607   1.111       .  S
C603        H608   1.109       .  S
C603        H609   1.110       .  S
C606        H610   1.110       .  S
C606        H611   1.108       .  S
C606        H612   1.111       .  S
C613        C614   1.401       .  A
C613        C618   1.404       .  A
C613        H620   1.085       .  S
C614        C615   1.411       .  A
C615        C616   1.406       .  A
C615        C622   1.507   1_556  S
C616        C617   1.409       .  A
C616        H621   1.084   1_556  S
C617        C618   1.423       .  A
C618        C619   1.509       .  S
C619        H623   1.111       .  S
C619        H624   1.110       .  S
C619        H625   1.110       .  S
C622        H626   1.110       .  S
C622        H627   1.109       .  S
C622        H628   1.111       .  S
C629        C630   1.400       .  A
C629        C634   1.403       .  A
C629        H636   1.085       .  S
C630        C631   1.408       .  A
C631        C632   1.403       .  A
C631        C638   1.507       .  S
C632        C633   1.411       .  A
C632        H637   1.084       .  S
C633        C634   1.422       .  A
C634        C635   1.509       .  S
C635        H639   1.111       .  S
C635        H640   1.110       .  S
C635        H641   1.110       .  S
C638        H642   1.110       .  S
C638        H643   1.109       .  S
C638        H644   1.111       .  S
C645        C646   1.404       .  A
C645        C650   1.404       .  A
C645        H652   1.084       .  S
C646        C647   1.414       .  A
C647        C648   1.405       .  A
C647        C654   1.508       .  S
C648        C649   1.404       .  A
C648        H653   1.084       .  S
C649        C650   1.415       .  A
C650        C651   1.508       .  S
C651        H655   1.111       .  S
C651        H656   1.109       .  S
C651        H657   1.110       .  S
C654        H658   1.110       .  S
C654        H659   1.107       .  S
C654        H660   1.111       .  S
C661        C662   1.403       .  A
C661        C666   1.405       .  A
C661        H668   1.084       .  S
C662        C663   1.418       .  A
C663        C664   1.404       .  A
C663        C670   1.509       .  S
C664        C665   1.400       .  A
C664        H669   1.084       .  S
C665        C666   1.412       .  A
C666        C667   1.507       .  S
C667        H671   1.111       .  S
C667        H672   1.111       .  S
C667        H673   1.110       .  S
C670        H674   1.108       .  S
C670        H675   1.110       .  S
C670        H676   1.111       .  S
C677        C678   1.401       .  A
C677        C682   1.407       .  A
C677        H684   1.084       .  S
C678        C679   1.412       .  A
C679        C680   1.403       .  A
C679        C686   1.509       .  S
C680        C681   1.408       .  A
C680        H685   1.084       .  S
C681        C682   1.423       .  A
C682        C683   1.508       .  S
C683        H687   1.111       .  S
C683        H688   1.111       .  S
C683        H689   1.109       .  S
C686        H690   1.111       .  S
C686        H691   1.108       .  S
C686        H692   1.111       .  S
